77
intermediate point 0.3
Fe 18.3397022534 -0.0000132188 -0.0000827270
Fe 15.2851411214 -0.0001187605 -0.0000171707
Fe 12.2080133958 -0.0002554775 0.0007467058
Fe 9.1470766344 0.0070927422 0.0000861436
Fe 6.1333570666 0.0189773674 0.0000859037
Fe 3.0988760971 -0.0001188102 -0.0002362760
Fe 0.0184181109 -0.0008179155 -0.0152579481
O 18.3242397209 0.0122492141 2.1143404270
O 18.3212987536 -0.0124906760 -2.1148777952
O 19.8587909679 -1.2596804559 0.0050405702
O 19.8585469954 1.2585570277 -0.0144206358
O 15.2892331171 0.0142345005 2.1275853782
O 15.2881377620 -0.0142920933 -2.1272146854
O 16.8156610687 -1.2608196785 0.0098016412
O 16.8157829887 1.2606182020 -0.0091082081
O 12.2532272609 0.0311470810 2.1427404655
O 12.2529835889 -0.0312691008 -2.1396883799
O 13.7749057742 -1.2575143005 0.0259093911
O 13.7762290880 1.2572944252 -0.0253350470
O 9.2152730436 -0.0100831794 2.1893122271
O 9.2156775666 0.0293551342 -2.1895330547
O 10.7518187056 -1.2712636346 -0.0029432777
O 10.7611156811 1.2780267365 0.0049039687
O 6.1051773573 0.0304649938 2.2126575039
O 6.1058476422 0.0171458118 -2.2118562992
O 7.6867856606 -1.2966345674 -0.0108857484
O 7.6984296205 1.3250991495 0.0106759092
O 3.0111988541 -0.0286281656 2.1639901724
O 3.0147542324 0.0276895467 -2.1669874090
O 4.5158038942 -1.2835219336 -0.0133881566
O 4.4939529351 1.3053264087 0.0133761775
O -0.0234873728 0.0104320201 2.1145173634
O -0.0277159733 -0.0106907595 -2.1495479798
O 1.5139014014 -1.2574019055 -0.0236468677
O 1.5102888272 1.2567968218 -0.0087593996
H 18.3571431421 -0.8265726010 -2.6737856779
H 18.3373331659 0.7995967349 -2.6765623754
H 18.3328239517 -0.7999306325 2.6770678240
H 18.3531867257 0.8264833172 2.6737213531
H 19.8648549168 -2.2485591258 0.0063959808
H 19.8660495527 2.2473904473 -0.0148873503
H 15.1769144563 -0.8305640418 -2.6785971995
H 15.1452217116 0.7932807541 -2.6773771265
H 15.1467934284 -0.7938126784 2.6782484452
H 15.1700124009 0.8303299713 2.6775961567
H 16.8118702420 -2.2496791853 0.0123992841
H 16.8119039331 2.2494716344 -0.0129639742
H 12.0246025575 -0.8463110835 -2.6559260371
H 12.0541803911 0.7753696991 -2.6810257625
H 12.0619166467 -0.7764577896 2.6855193819
H 12.0135993687 0.8449986889 2.6555850211
H 13.7596437896 -2.2460564076 0.0241066867
H 13.7603772392 2.2457908371 -0.0233217985
H 9.0526253610 -0.7771234598 -2.7330185378
H 9.0635890630 0.8489331287 -2.7179432332
H 9.0724149405 -0.8286965572 2.7228913750
H 9.0429882141 0.7972544612 2.7275965569
H 10.7266978890 -2.2587571286 0.0021091737
H 10.7396759895 2.2655965540 -0.0014278741
H 6.1470343643 -0.8032612147 -2.7610542765
H 6.1659387840 0.8239670348 -2.7728590617
H 6.1620557861 -0.7756158304 2.7766215437
H 6.1521810319 0.8517712960 2.7596863581
H 7.6773560215 -2.2832485610 -0.0101951775
H 7.6991423764 2.3121014549 0.0117341488
H 3.2068829626 -0.7788795137 -2.7106188379
H 3.2189475612 0.8454065535 -2.6884790370
H 3.2038383968 -0.8468938432 2.6892141171
H 3.2155313940 0.7772724401 2.7038954667
H 4.5379451011 -2.2704964678 -0.0166683579
H 4.5023338937 2.2926559623 0.0152925711
H 0.1437848632 -0.8219776895 -2.6887247091
H 0.1274516387 0.8018529357 -2.6954722983
H 0.1169259984 -0.8018464546 2.6651855157
H 0.1471260964 0.8215943600 2.6541747646
H 1.5361660445 -2.2455331540 -0.0209037827
H 1.5332061889 2.2448180981 -0.0086620031
