77
intermediate point 0.7
Fe 18.3389085666 0.0000547157 -0.0000032070
Fe 15.2748828709 0.0036337927 0.0002832191
Fe 12.1949850562 0.0018120822 0.0057586031
Fe 9.1600260424 0.0135957486 -0.0024406499
Fe 6.1459758993 0.0056907340 0.0007843774
Fe 3.0837862656 -0.0024548765 -0.0001720179
Fe 0.0081708220 0.0034317934 -0.0055636260
O 18.3268530263 -0.0125197738 2.1015391615
O 18.3256215162 0.0128941356 -2.1018898343
O 19.8610266510 -1.2374245368 -0.0116284684
O 19.8600756206 1.2424125148 0.0089391262
O 15.3048232783 -0.0122752509 2.1104251147
O 15.3022259752 0.0138656595 -2.1095677747
O 16.8164693844 -1.2363304255 -0.0105564474
O 16.8173612013 1.2407490939 0.0103365249
O 12.2790923103 0.0262438088 2.1566312503
O 12.2674680363 -0.0250318854 -2.1426057239
O 13.7751151676 -1.2288887177 -0.0069980311
O 13.7761593604 1.2393194074 0.0093097637
O 9.1897070933 0.0142566776 2.2010710120
O 9.1904205861 0.0265999759 -2.2037755314
O 10.7793585660 -1.2602619197 0.0258750424
O 10.7860811196 1.2757546745 -0.0132600070
O 6.0781784430 0.0228047684 2.1790148036
O 6.0783090552 -0.0044216259 -2.1779564439
O 7.6042139084 -1.2738579955 0.0095214807
O 7.6000652140 1.2916494270 -0.0123081032
O 3.0179234582 -0.0330698818 2.1247352065
O 3.0196645186 0.0316042887 -2.1267761948
O 4.5415427431 -1.2485797065 -0.0245300773
O 4.5382626781 1.2479232766 0.0264090816
O -0.0198331620 -0.0128111456 2.1016614067
O -0.0223509653 0.0141218411 -2.1139598881
O 1.5181572297 -1.2329938005 -0.0267775253
O 1.5188484038 1.2366146940 0.0120533059
H 18.2940190409 -0.7973056761 -2.6660570308
H 18.2741551404 0.8281028554 -2.6599088814
H 18.2700543386 -0.8272043723 2.6608534813
H 18.2916167525 0.7982155885 2.6653680596
H 19.8644078063 -2.2257443995 -0.0149737288
H 19.8617044878 2.2307092036 0.0111406622
H 15.1410770526 -0.7986512889 -2.6543378551
H 15.1281180146 0.8235113855 -2.6518281961
H 15.1264041489 -0.8230512488 2.6509378106
H 15.1362210816 0.7987586373 2.6557635656
H 16.8084030102 -2.2246669125 -0.0130851636
H 16.8106969468 2.2290480331 0.0135468840
H 12.0653117266 -0.8425341330 -2.6648117373
H 12.0457029619 0.7794325532 -2.6775041445
H 12.0569869013 -0.7789823394 2.6914332423
H 12.0651835489 0.8426343882 2.6753035280
H 13.7522316848 -2.2165722284 -0.0055109136
H 13.7524891293 2.2268419197 0.0077405365
H 9.1103440030 -0.7774275940 -2.7651138215
H 9.1312587304 0.8482286097 -2.7478037186
H 9.1322401884 -0.8065425198 2.7470092631
H 9.1057090189 0.8187852489 2.7597886592
H 10.7563609595 -2.2466611415 0.0247338247
H 10.7720601196 2.2622937965 -0.0117188721
H 6.1919038506 -0.8231343291 -2.7183942783
H 6.2422243802 0.8017245019 -2.7176342160
H 6.2365177019 -0.7816025975 2.7240014169
H 6.1956530504 0.8436807949 2.7151747661
H 7.6121575549 -2.2598571395 0.0068751827
H 7.6031729596 2.2778827841 -0.0077287315
H 3.2092244821 -0.7743322068 -2.6725201187
H 3.2119386646 0.8480325027 -2.6559884095
H 3.2058490802 -0.8489507500 2.6563041081
H 3.2111924585 0.7734500935 2.6681615058
H 4.5686038592 -2.2354835553 -0.0262113159
H 4.5599368019 2.2349309886 0.0257038461
H 0.0953165682 -0.7945565968 -2.6695344992
H 0.0772635059 0.8290365473 -2.6695260869
H 0.0755966202 -0.8292227495 2.6557391803
H 0.0961169789 0.7946716910 2.6595500654
H 1.5321249888 -2.2210615859 -0.0303406563
H 1.5353989144 2.2246016344 0.0150964913
