77
intermediate point 0.9
Fe 18.3386577900 0.0000058388 0.0000173866
Fe 15.2703263745 -0.0003718546 -0.0000932981
Fe 12.1868994634 0.0001121800 0.0000398819
Fe 9.1664214951 0.0205311122 0.0002231869
Fe 6.1529252546 0.0027867544 0.0000181426
Fe 3.0755791148 -0.0003408126 -0.0003875637
Fe 0.0031700069 -0.0001079098 -0.0021851924
O 18.3379834018 -0.0268197861 2.1139979930
O 18.3366828947 0.0267646459 -2.1140283583
O 19.8607365079 -1.2620324055 -0.0225772698
O 19.8607290034 1.2617715612 0.0211438934
O 15.3165250044 -0.0226467077 2.1532740596
O 15.3161735825 0.0224779239 -2.1531211961
O 16.8175007768 -1.2581656302 -0.0219259239
O 16.8178002628 1.2577256105 0.0222244867
O 12.2791320757 0.0324295308 2.1669840097
O 12.2786709388 -0.0330289519 -2.1666397762
O 13.7819287293 -1.2566540300 0.0215666019
O 13.7855077904 1.2566445072 -0.0223664635
O 9.1770998905 0.0308613942 2.2240891536
O 9.1771440765 0.0277357571 -2.2248488708
O 10.7908930355 -1.2960983377 0.0247514055
O 10.8123685589 1.3174233950 -0.0239606805
O 6.0639637332 0.0323495862 2.1763635828
O 6.0645061802 -0.0261065486 -2.1762918083
O 7.5627884833 -1.2997236316 0.0236142811
O 7.5450542208 1.3240338091 -0.0231215349
O 3.0160472669 -0.0289598852 2.1560423688
O 3.0167009254 0.0284804066 -2.1570682922
O 4.5503782786 -1.2605199157 0.0156904310
O 4.5439042160 1.2635275658 -0.0169028312
O -0.0203319100 -0.0273594375 2.1144506487
O -0.0209114740 0.0272393386 -2.1195122784
O 1.5190128397 -1.2572548044 -0.0269756105
O 1.5182878157 1.2567392863 0.0222041073
H 18.2706532925 -0.7815100471 -2.6818444257
H 18.2375167437 0.8439706622 -2.6636633035
H 18.2405339761 -0.8441292383 2.6643115816
H 18.2673494661 0.7815335800 2.6812978991
H 19.8613562909 -2.2508645792 -0.0255427581
H 19.8615384660 2.2506019271 0.0240229010
H 15.1691066789 -0.7906698914 -2.7021350380
H 15.0581142353 0.8271186895 -2.6691773450
H 15.0678576230 -0.8291962932 2.6715477091
H 15.1606437616 0.7898878514 2.7007221296
H 16.8082078896 -2.2470098391 -0.0215349739
H 16.8079253108 2.2465563729 0.0213325608
H 12.0990450994 -0.8571442416 -2.6882858118
H 12.0385411300 0.7667631952 -2.7009149358
H 12.0530799571 -0.7693392230 2.7049661442
H 12.0860366184 0.8555230396 2.6855102413
H 13.7575963752 -2.2446680417 0.0181793390
H 13.7607006144 2.2445605356 -0.0176451032
H 9.1513060056 -0.7804645014 -2.7945886208
H 9.1530590957 0.8471796595 -2.7793016273
H 9.1541359647 -0.7850879497 2.7834304051
H 9.1496334468 0.8425726709 2.7882796017
H 10.7724620848 -2.2830366618 0.0287289848
H 10.8069030142 2.3045644309 -0.0296071560
H 6.2119981058 -0.8510250717 -2.7043776690
H 6.2794355675 0.7741146660 -2.7152639815
H 6.2649692248 -0.7694876908 2.7190841960
H 6.2234515496 0.8565312923 2.7015493156
H 7.5758428861 -2.2865274530 0.0268825341
H 7.5468766097 2.3110085434 -0.0276446383
H 3.1644169949 -0.7829501166 -2.7081131956
H 3.2724966806 0.8355403760 -2.6730472369
H 3.2609331034 -0.8377859903 2.6745604340
H 3.1725753224 0.7819362492 2.7053000622
H 4.5755348504 -2.2483222265 0.0118482023
H 4.5673496215 2.2513158681 -0.0128997646
H 0.0569676857 -0.7808720098 -2.6864413866
H 0.0862927207 0.8446223043 -2.6699822484
H 0.0821534816 -0.8446497516 2.6661118581
H 0.0589222718 0.7809006747 2.6810374184
H 1.5304713693 -2.2459677964 -0.0268318373
H 1.5304098298 2.2454241878 0.0221053471
