77
intermediate point 0.6
Fe 18.3391227196 -0.0000501468 -0.0001701125
Fe 15.2771821954 -0.0004164426 0.0012550289
Fe 12.1970810642 0.0001684291 0.0004330899
Fe 9.1569325343 0.0183481895 -0.0003529141
Fe 6.1428940325 0.0122840544 0.0004669360
Fe 3.0876391240 0.0002567105 -0.0001336942
Fe 0.0109989912 -0.0008271185 -0.0081985708
O 18.3280366770 -0.0073806837 2.1085922210
O 18.3254633093 0.0072199370 -2.1087133846
O 19.8600508241 -1.2520387746 -0.0070299957
O 19.8600973300 1.2506093610 0.0027727738
O 15.3012392340 -0.0071439808 2.1194625020
O 15.2999599971 0.0070126892 -2.1164158923
O 16.8171600610 -1.2511806881 -0.0053486147
O 16.8172375148 1.2505906232 0.0064458146
O 12.2632555287 0.0260157295 2.1484310037
O 12.2633921868 -0.0266014178 -2.1470655380
O 13.7758915714 -1.2483902223 -0.0018117916
O 13.7784407269 1.2475994356 0.0039218310
O 9.1958049801 0.0106676955 2.2017968076
O 9.1959434413 0.0296942903 -2.2023825165
O 10.7695947380 -1.2676385812 0.0093265270
O 10.7901860288 1.2916769527 -0.0090167925
O 6.0842338374 0.0261609236 2.1902907385
O 6.0846107578 0.0007545364 -2.1893143322
O 7.6259552688 -1.2791210383 0.0061457370
O 7.6192620374 1.3194822990 -0.0061301046
O 3.0155391470 -0.0312499762 2.1378527485
O 3.0176039060 0.0304096957 -2.1397129084
O 4.5351667027 -1.2604770883 -0.0238543166
O 4.5198779312 1.2769452361 0.0256605168
O -0.0209756563 -0.0081826787 2.1090336104
O -0.0242061453 0.0076593697 -2.1277485527
O 1.5169867196 -1.2487382472 -0.0251298346
O 1.5149240741 1.2477029404 0.0054957933
H 18.3058503529 -0.8036978717 -2.6722251101
H 18.2987060876 0.8222161222 -2.6667991595
H 18.2970730273 -0.8224669633 2.6670123319
H 18.3035587916 0.8035758203 2.6722486284
H 19.8630870605 -2.2405850194 -0.0100435573
H 19.8641441882 2.2391318030 0.0057767019
H 15.1541588558 -0.8048098680 -2.6652813298
H 15.1357343982 0.8184505087 -2.6587719040
H 15.1383833589 -0.8185075778 2.6628763802
H 15.1487325797 0.8048041721 2.6664306385
H 16.8110688995 -2.2397101729 -0.0077742878
H 16.8104536281 2.2391091114 0.0082208992
H 12.0700801861 -0.8461902508 -2.6701066260
H 12.0438054174 0.7760050505 -2.6856549610
H 12.0516742345 -0.7767652684 2.6903212799
H 12.0600413516 0.8456724774 2.6676572713
H 13.7552700763 -2.2363583876 -0.0013220440
H 13.7564784806 2.2354166611 0.0031175087
H 9.1051733790 -0.7785812396 -2.7585105043
H 9.1095260874 0.8478805517 -2.7455711155
H 9.1139257148 -0.8073684826 2.7469429911
H 9.0999361359 0.8190694242 2.7556084840
H 10.7459063407 -2.2544810727 0.0122747781
H 10.7754844145 2.2784939386 -0.0129243060
H 6.1771266949 -0.8212841446 -2.7293941132
H 6.2275308717 0.8040157619 -2.7377302849
H 6.2216463125 -0.7761960348 2.7429880836
H 6.1835345642 0.8495343765 2.7266894260
H 7.6300046472 -2.2655057832 0.0059687228
H 7.6202897081 2.3059677912 -0.0057359297
H 3.2072876204 -0.7771162781 -2.6834504720
H 3.2152549124 0.8465370103 -2.6677647337
H 3.2066307003 -0.8476003928 2.6680140843
H 3.2130379103 0.7759478628 2.6790962858
H 4.5596762087 -2.2475427510 -0.0240541723
H 4.5393238736 2.2639675860 0.0238806955
H 0.1029881350 -0.8021903877 -2.6809370079
H 0.0960640076 0.8225830664 -2.6776079745
H 0.0901979658 -0.8224953784 2.6623959148
H 0.1039176333 0.8020343543 2.6625303421
H 1.5335339539 -2.2368799096 -0.0262266840
H 1.5320027479 2.2357639160 0.0102025759
