77
intermediate point 0.4
Fe 18.3394015733 -0.0000648566 -0.0002677835
Fe 15.2823083978 -0.0002732850 0.0008579122
Fe 12.2038346436 0.0000528765 0.0006493815
Fe 9.1505890368 0.0123975941 -0.0002271431
Fe 6.1364676562 0.0182342736 0.0007026044
Fe 3.0950618824 0.0003012964 -0.0002212747
Fe 0.0161323998 -0.0012475367 -0.0123525523
O 18.3249505110 0.0052839985 2.1086369539
O 18.3219511218 -0.0054797726 -2.1088735468
O 19.8595558109 -1.2513668186 0.0020545567
O 19.8596376683 1.2492503113 -0.0083508816
O 15.2925613230 0.0059270592 2.1160147124
O 15.2912661805 -0.0059984395 -2.1138597006
O 16.8163900847 -1.2518258055 0.0048486000
O 16.8164780931 1.2514277936 -0.0038496269
O 12.2532158299 0.0270848998 2.1396091892
O 12.2533860315 -0.0274474218 -2.1377281474
O 13.7741784521 -1.2482643508 0.0081189709
O 13.7759525863 1.2476397502 -0.0063976419
O 9.2085995594 -0.0029663395 2.1901026670
O 9.2087952490 0.0297427997 -2.1903157652
O 10.7565674977 -1.2618972893 0.0001353007
O 10.7713697242 1.2776668064 0.0009014587
O 6.0979719617 0.0272858075 2.2027578432
O 6.0984611720 0.0132817671 -2.2013000053
O 7.6670427668 -1.2791087589 -0.0046355695
O 7.6725295451 1.3194605584 0.0052676228
O 3.0132896519 -0.0301952273 2.1461905603
O 3.0162944465 0.0290862400 -2.1487997559
O 4.5228419807 -1.2666532827 -0.0244459016
O 4.5017766869 1.2912390548 0.0266852349
O -0.0217686930 0.0039779532 2.1090889754
O -0.0264446917 -0.0047675988 -2.1371101575
O 1.5158782534 -1.2488167554 -0.0244061976
O 1.5129588091 1.2472606278 -0.0049540883
H 18.3366587844 -0.8180842496 -2.6701306894
H 18.3278841200 0.8078150256 -2.6700345144
H 18.3246129319 -0.8081623483 2.6702885112
H 18.3338338311 0.8179587215 2.6703023166
H 19.8643061639 -2.2399285873 0.0004031945
H 19.8659606601 2.2377715809 -0.0068144740
H 15.1645746537 -0.8195001674 -2.6646592932
H 15.1528672160 0.8046782783 -2.6641404592
H 15.1539411221 -0.8046566772 2.6669018118
H 15.1591650704 0.8195318755 2.6651859840
H 16.8119769554 -2.2403703406 0.0039953743
H 16.8116432349 2.2399665848 -0.0038873068
H 12.0451055369 -0.8442566912 -2.6594343310
H 12.0488803039 0.7771695356 -2.6793764926
H 12.0552351759 -0.7777563264 2.6836918056
H 12.0355221805 0.8435911532 2.6580547032
H 13.7567452423 -2.2364225226 0.0078671001
H 13.7574265522 2.2356954904 -0.0063737330
H 9.0727803589 -0.7780512263 -2.7380239418
H 9.0792511561 0.8479562146 -2.7250179219
H 9.0857942269 -0.8209429852 2.7278739455
H 9.0652254325 0.8049861490 2.7343696849
H 10.7315707920 -2.2489650831 0.0043439622
H 10.7517561555 2.2646520942 -0.0042050911
H 6.1563423336 -0.8075245017 -2.7478650144
H 6.1887625388 0.8185075963 -2.7579132345
H 6.1853917285 -0.7768970269 2.7628274161
H 6.1614153767 0.8493498005 2.7465038431
H 7.6627587353 -2.2654797075 -0.0049510716
H 7.6719061150 2.3059507073 0.0064837582
H 3.2129023340 -0.7776391574 -2.6911077847
H 3.2087831480 0.8469438304 -2.6758942086
H 3.1982898596 -0.8480396105 2.6761054112
H 3.2195864297 0.7762556037 2.6851124430
H 4.5462308997 -2.2534771170 -0.0255215173
H 4.5164620859 2.2780867378 0.0254000320
H 0.1292545544 -0.8153667035 -2.6821117558
H 0.1137726045 0.8087371677 -2.6845994374
H 0.1055661502 -0.8086887268 2.6616178801
H 0.1304378498 0.8150361213 2.6546707728
H 1.5360073652 -2.2367792614 -0.0229517356
H 1.5337708737 2.2350968559 -0.0008647369
