77
intermediate point 0.1
Fe 18.3399484649 -0.0000145001 -0.0001059172
Fe 15.2900681193 -0.0000397650 -0.0000068466
Fe 12.2150531193 -0.0003081657 0.0010971357
Fe 9.1406478427 0.0026125057 0.0000918651
Fe 6.1268195044 0.0242269879 0.0001090513
Fe 3.1065909044 -0.0000366848 -0.0001878675
Fe 0.0234329182 -0.0010434966 -0.0196141470
O 18.3198846712 0.0252463466 2.1144189649
O 18.3163675820 -0.0255508250 -2.1151423515
O 19.8581742768 -1.2589108581 0.0141490926
O 19.8578505407 1.2574962548 -0.0261902014
O 15.2801051782 0.0265149254 2.1190618821
O 15.2787500102 -0.0265425797 -2.1186508875
O 16.8150717456 -1.2617059700 0.0203384259
O 16.8151393683 1.2615772805 -0.0195227341
O 12.2446236292 0.0307392032 2.1347006969
O 12.2444241838 -0.0307316363 -2.1308164703
O 13.7725717599 -1.2577827643 0.0274105180
O 13.7731698968 1.2574849692 -0.0264025433
O 9.2280199327 -0.0236944598 2.1778230029
O 9.2285452494 0.0299634293 -2.1776399310
O 10.7387912632 -1.2629490803 -0.0121517178
O 10.7440847419 1.2649433181 0.0145094820
O 6.1189325840 0.0298585743 2.2248282944
O 6.1196298155 0.0315178940 -2.2237563554
O 7.7281423497 -1.2955888837 -0.0223579904
O 7.7495395747 1.3254304292 0.0219350509
O 3.0096327251 -0.0285352055 2.1666986182
O 3.0141580557 0.0274439763 -2.1703479571
O 4.5042944079 -1.2911983056 -0.0230096876
O 4.4773097714 1.3192547384 0.0234031605
O -0.0244480408 0.0229585090 2.1144714733
O -0.0298903711 -0.0232764432 -2.1595006058
O 1.5122192775 -1.2574250057 -0.0225809656
O 1.5076394404 1.2567970709 -0.0190415710
H 18.3865852324 -0.8415632174 -2.6712098974
H 18.3701559419 0.7848372396 -2.6807670120
H 18.3632423850 -0.7852405032 2.6812415389
H 18.3823026734 0.8414456028 2.6712898430
H 19.8660329703 -2.2477805083 0.0169908123
H 19.8675609424 2.2463087345 -0.0278187196
H 15.1803710912 -0.8439264795 -2.6708156811
H 15.1730164328 0.7817006384 -2.6799180629
H 15.1720655067 -0.7817863853 2.6802857425
H 15.1737261463 0.8438637522 2.6698804490
H 16.8130985978 -2.2505576258 0.0236749828
H 16.8132323520 2.2504226662 -0.0243716903
H 12.0001993327 -0.8428131415 -2.6450282834
H 12.0587654049 0.7779703104 -2.6743831190
H 12.0643743384 -0.7786878553 2.6790318194
H 11.9896292498 0.8415860307 2.6455369983
H 13.7603321091 -2.2465235421 0.0261696234
H 13.7603127805 2.2462015815 -0.0253586697
H 9.0196050991 -0.7759442081 -2.7124554432
H 9.0336529974 0.8496394247 -2.6973478347
H 9.0450625267 -0.8431341011 2.7028241291
H 9.0073042656 0.7821927259 2.7073540044
H 10.7114347207 -2.2506677201 -0.0067175434
H 10.7173647919 2.2525946423 0.0080040654
H 6.1247432380 -0.7874834176 -2.7799224950
H 6.1285209649 0.8403632802 -2.7921363478
H 6.1280234534 -0.7775009700 2.7958433349
H 6.1279915626 0.8502616995 2.7790382931
H 7.7112052858 -2.2821428925 -0.0225165381
H 7.7498289293 2.3124976196 0.0249079355
H 3.2199601042 -0.7775509428 -2.7115650948
H 3.2021970180 0.8484358486 -2.6934617021
H 3.1857117005 -0.8497233623 2.6939612750
H 3.2290122819 0.7757419879 2.7035068910
H 4.5253988259 -2.2778876089 -0.0260783964
H 4.4806338418 2.3064146119 0.0245882056
H 0.1722607623 -0.8356052778 -2.6896153701
H 0.1417573978 0.7876967753 -2.7038662304
H 0.1290293720 -0.7876820697 2.6647765824
H 0.1761567578 0.8350850627 2.6453193169
H 1.5380729669 -2.2454160690 -0.0189766678
H 1.5341458181 2.2446306630 -0.0188802131
