77
intermediate point 0.2
Fe 18.3398620988 -0.0000340670 -0.0002003676
Fe 15.2876462315 0.0003625445 0.0017155089
Fe 12.2122775170 -0.0004372990 0.0001408669
Fe 9.1444708343 0.0026283541 -0.0023098923
Fe 6.1301521311 0.0110997639 0.0008745975
Fe 3.1020686667 -0.0005158247 -0.0018450575
Fe 0.0209386915 -0.0005076924 -0.0000033239
O 18.3196497201 0.0198621698 2.0939244962
O 18.3183120377 -0.0198829516 -2.0937159409
O 19.8595989632 -1.2219995253 0.0158236300
O 19.8595872843 1.2213186580 -0.0157824092
O 15.2818926772 0.0201988777 2.0978569059
O 15.2797314213 -0.0200504232 -2.0959942753
O 16.8152407288 -1.2252355562 0.0169301309
O 16.8153962269 1.2256595261 -0.0163480936
O 12.2453053875 0.0293219724 2.1145372509
O 12.2457342546 -0.0298357142 -2.1113858294
O 13.7714161267 -1.2198304858 0.0250446364
O 13.7715973426 1.2198758798 -0.0171096266
O 9.2191454026 -0.0181880941 2.1369342067
O 9.2193140046 0.0298681068 -2.1419916923
O 10.7435927717 -1.2284947048 -0.0020137300
O 10.7459631808 1.2291348749 0.0005385891
O 6.1131503363 0.0259053776 2.1685086859
O 6.1134336172 0.0221175425 -2.1730372407
O 7.7128737065 -1.2686875309 -0.0159807040
O 7.7174805266 1.2767105350 0.0167379248
O 3.0176052027 -0.0327940507 2.1182390304
O 3.0162074520 0.0316566926 -2.1200359384
O 4.5050692317 -1.2590531823 -0.0248382982
O 4.4984101409 1.2647538809 0.0187572943
O -0.0219317357 0.0148299118 2.1032013249
O -0.0224548842 -0.0152459077 -2.1032467042
O 1.5165134351 -1.2194304305 -0.0217784768
O 1.5158455328 1.2177672586 0.0211067196
H 18.3620810852 -0.8351609500 -2.6527738728
H 18.3387523754 0.7900744551 -2.6616946534
H 18.3373330232 -0.7899225409 2.6620906313
H 18.3629976736 0.8351918758 2.6524131496
H 19.8673523976 -2.2102198531 0.0177719540
H 19.8676070808 2.2095303633 -0.0178963927
H 15.1643546943 -0.8355868136 -2.6474284858
H 15.1613307029 0.7881102287 -2.6549381855
H 15.1644839270 -0.7880526633 2.6564840409
H 15.1616030335 0.8355231288 2.6484080860
H 16.8121324668 -2.2134356065 0.0198730642
H 16.8124721204 2.2138583997 -0.0189720598
H 12.0232323228 -0.8452452047 -2.6302604668
H 12.0457407050 0.7750790008 -2.6550749444
H 12.0546678629 -0.7770716776 2.6593627446
H 12.0135038946 0.8429020348 2.6321282659
H 13.7560199474 -2.2078218857 0.0274039169
H 13.7558425281 2.2078690668 -0.0206196787
H 9.0249988708 -0.7723543558 -2.6831782277
H 9.0532488450 0.8518318441 -2.6652025140
H 9.0630876136 -0.8405504525 2.6629746740
H 9.0154678384 0.7829993677 2.6749215553
H 10.7136862224 -2.2151662283 0.0058464250
H 10.7186083320 2.2158780409 -0.0050648622
H 6.1319190493 -0.7933611364 -2.7309847991
H 6.1464395358 0.8325151844 -2.7333394226
H 6.1428844502 -0.7770734562 2.7406379083
H 6.1320622488 0.8487907695 2.7156174930
H 7.6977590006 -2.2541243259 -0.0197544096
H 7.7090405506 2.2624587009 0.0183964881
H 3.2089067372 -0.7740739504 -2.6646802079
H 3.2007455690 0.8505468441 -2.6474209556
H 3.1912219683 -0.8534717629 2.6467611376
H 3.2170281805 0.7710826254 2.6626479853
H 4.5304353036 -2.2448380922 -0.0290798921
H 4.5148760088 2.2507778864 0.0222242318
H 0.1550031728 -0.8276497324 -2.6400296594
H 0.1119410748 0.7941188596 -2.6600979664
H 0.1051144462 -0.7952479117 2.6607748274
H 0.1598456965 0.8260573298 2.6396268446
H 1.5428707564 -2.2066913045 -0.0151524686
H 1.5419237047 2.2050262928 0.0144637527
