77			
intermediate point	0.4		
Fe	18.3350812817	0.0000031089	0.0000369731
Fe	15.2754501650	-0.0000008405	0.0001110549
Fe	12.2088803570	-0.0000137507	-0.0000676947
Fe	9.1526602736	-0.0000008426	-0.0000456132
Fe	6.1264567633	0.0000158608	0.0001580056
Fe	3.0800715669	0.0000040769	0.0000410191
Fe	0.0100237316	-0.0000052485	-0.0000003789
O	18.3330116584	0.0000008653	2.1430192046
O	18.3329279634	0.0000035556	-2.1429845133
O	19.8557023285	-1.2610722202	-0.0000414169
O	19.8557067420	1.2610692630	-0.0000591930
O	15.2829300271	-0.0001103324	2.1462672577
O	15.2828704286	0.0001228169	-2.1460838042
O	16.8113635036	-1.2610556461	-0.0000167696
O	16.8113613191	1.2610633125	0.0000733475
O	12.2474913077	0.0005088486	2.1593820300
O	12.2476826349	-0.0005439255	-2.1595782122
O	13.7712704759	-1.2599412585	-0.0000935575
O	13.7712702116	1.2599159122	0.0001305459
O	9.1945162957	-0.0012495550	2.2206685280
O	9.1943893991	0.0012533355	-2.2207951241
O	10.7657704495	-1.2848772672	0.0018039625
O	10.7657792119	1.2848442337	-0.0022717077
O	6.0986274315	0.0007103678	2.2450090557
O	6.0987224139	-0.0006692743	-2.2446697157
O	7.6671802509	-1.3251422258	0.0017336781
O	7.6671941894	1.3251752395	-0.0015734831
O	3.0290919611	-0.0002272931	2.1637890086
O	3.0291940588	0.0002177960	-2.1637226960
O	4.5005831242	-1.2982001488	-0.0004006240
O	4.5005862796	1.2982317994	0.0005940754
O	-0.0039465181	0.0000069958	2.1477295855
O	-0.0040096888	-0.0000148284	-2.1477793959
O	1.5089538148	-1.2592304791	-0.0001314426
O	1.5089469343	1.2592192239	-0.0000396494
H	18.3401212237	-0.7943697774	-2.6890705259
H	18.3399995085	0.7943808485	-2.6890549168
H	18.3401548084	-0.7943980091	2.6890577358
H	18.3402706544	0.7943941945	2.6890713242
H	19.8648183672	-2.2211281136	-0.0000051506
H	19.8648291790	2.2211251185	-0.0000204339
H	15.1982761851	-0.7939967320	-2.6861959961
H	15.1977380873	0.7941503947	-2.6861967413
H	15.1979178101	-0.7941573606	2.6863781050
H	15.1984179079	0.7940254826	2.6863746384
H	16.8053391475	-2.2211710400	-0.0000025566
H	16.8053422217	2.2211797645	0.0000322676
H	12.0982457013	-0.7948231887	-2.6857599830
H	12.0948056436	0.7937712876	-2.6845478478
H	12.0945876741	-0.7938084088	2.6843233361
H	12.0979754361	0.7948334127	2.6854590252
H	13.7451061089	-2.2192014566	0.0005801208
H	13.7450514603	2.2191725419	-0.0003079753
H	9.0893591323	-0.7946352954	-2.7468648604
H	9.0900464335	0.7963278094	-2.7482884462
H	9.0898378099	-0.7963613605	2.7480835467
H	9.0890840455	0.7946616163	2.7466825781
H	10.7254055822	-2.2420191464	-0.0013893749
H	10.7254696129	2.2419863065	0.0007663553
H	6.1624871891	-0.7962350885	-2.7778193941
H	6.1661396582	0.7950098522	-2.7764647779
H	6.1657945631	-0.7950111155	2.7767783300
H	6.1621405129	0.7962650412	2.7782171705
H	7.6598673623	-2.2806951258	-0.0006683555
H	7.6599056533	2.2807288433	0.0009934716
H	3.1829777273	-0.7945456049	-2.6875042546
H	3.1828883907	0.7949183390	-2.6876789708
H	3.1828050709	-0.7949687525	2.6876813871
H	3.1829509701	0.7945733535	2.6874944905
H	4.5398784565	-2.2548182726	0.0007006751
H	4.5398139438	2.2548530645	-0.0004990998
H	0.0934268088	-0.7939841048	-2.6858661926
H	0.0933032034	0.7939834782	-2.6858451183
H	0.0934423986	-0.7940246126	2.6857294194
H	0.0936141383	0.7940081780	2.6857400068
H	1.5407810710	-2.2181332567	-0.0002047130
H	1.5407833288	2.2181201376	0.0000213279
