77
intermediate point 0.7
Fe 18.3389420663 0.0000045527 0.0000493401
Fe 15.2752642164 -0.0002873802 -0.0000782451
Fe 12.1939642739 0.0000116526 0.0003305566
Fe 9.1600536680 0.0159498979 0.0001079694
Fe 6.1463929716 0.0080778998 0.0000291653
Fe 3.0833045051 -0.0001516147 -0.0003645945
Fe 0.0082177337 -0.0003304277 -0.0065624261
O 18.3334893339 -0.0137864797 2.1141312797
O 18.3316333460 0.0136715580 -2.1143550751
O 19.8601077819 -1.2612420146 -0.0134125223
O 19.8600127044 1.2606985039 0.0092954525
O 15.3074166146 -0.0103500737 2.1447618971
O 15.3068099699 0.0102151568 -2.1445450687
O 16.8168987639 -1.2590384677 -0.0113543996
O 16.8171405003 1.2586747096 0.0117778601
O 12.2706509784 0.0320242096 2.1590716922
O 12.2702247245 -0.0324732090 -2.1577835253
O 13.7795925704 -1.2569294280 0.0230412227
O 13.7824274804 1.2568464973 -0.0233844411
O 9.1898243318 0.0172229986 2.2125735883
O 9.1899883182 0.0283038495 -2.2130740521
O 10.7778770154 -1.2877852756 0.0155362697
O 10.7953125401 1.3042939201 -0.0143319190
O 6.0777147517 0.0317141701 2.1885033868
O 6.0782942172 -0.0117119379 -2.1881974318
O 7.6041573582 -1.2987597785 0.0121139241
O 7.5961421291 1.3243615124 -0.0118530739
O 3.0144659247 -0.0288642775 2.1587464943
O 3.0160942616 0.0282344847 -2.1604270398
O 4.5388335783 -1.2682734203 0.0060081521
O 4.5272780323 1.2774235649 -0.0068291342
O -0.0213329327 -0.0147702494 2.1144760044
O -0.0231127228 0.0146148791 -2.1295748401
O 1.5173113882 -1.2572831979 -0.0258953277
O 1.5156283368 1.2567496351 0.0118907676
H 18.2997307209 -0.7965368984 -2.6791923579
H 18.2706261251 0.8291425272 -2.6679802749
H 18.2711395866 -0.8293614094 2.6685877321
H 18.2961701508 0.7965354850 2.6787977491
H 19.8625244750 -2.2500795707 -0.0149015446
H 19.8630177309 2.2495245519 0.0110228400
H 15.1719233500 -0.8039982218 -2.6942982411
H 15.0867382494 0.8157010472 -2.6718884801
H 15.0938216345 -0.8172862974 2.6737571464
H 15.1638671057 0.8033921908 2.6929937365
H 16.8094303707 -2.2478867824 -0.0102074040
H 16.8092503729 2.2475120081 0.0098760254
H 12.0742681172 -0.8535480441 -2.6774581504
H 12.0436282253 0.7695190507 -2.6943326635
H 12.0559677058 -0.7716471091 2.6985810956
H 12.0618114323 0.8520166031 2.6755403067
H 13.7582967171 -2.2451268494 0.0201986337
H 13.7606244356 2.2449639973 -0.0195989832
H 9.1182843454 -0.7792849691 -2.7740797259
H 9.1232273206 0.8478203030 -2.7588021109
H 9.1269201692 -0.7996204289 2.7632795638
H 9.1139251869 0.8274195853 2.7680842096
H 10.7572249900 -2.2749302339 0.0198834478
H 10.7845671275 2.2915560175 -0.0202141451
H 6.1901070413 -0.8351345478 -2.7233145566
H 6.2417138884 0.7906600463 -2.7344936522
H 6.2307163693 -0.7714750881 2.7382992611
H 6.1995222125 0.8549602287 2.7209107183
H 7.6097339634 -2.2855176015 0.0145013904
H 7.5975791847 2.3113457100 -0.0144946956
H 3.1782430058 -0.7815563748 -2.7090245746
H 3.2549490611 0.8387645550 -2.6781491707
H 3.2420855992 -0.8407795960 2.6794127073
H 3.1866606139 0.7803355943 2.7049113690
H 4.5629461149 -2.2558009039 0.0023335678
H 4.5456793966 2.2650590065 -0.0035218357
H 0.0858165646 -0.7945404699 -2.6872757753
H 0.1001647552 0.8303743302 -2.6785381295
H 0.0938538474 -0.8303926669 2.6657943694
H 0.0883187089 0.7944338724 2.6720960667
H 1.5323408352 -2.2458144662 -0.0249006098
H 1.5313004671 2.2452265673 0.0118491303
