77
intermediate point 0.5
Fe 18.3392263427 0.0000032667 0.0000812936
Fe 15.2802020584 -0.0002029058 -0.0000631921
Fe 12.2010290843 -0.0000888748 0.0006212312
Fe 9.1536858409 0.0113686835 -0.0000072481
Fe 6.1398606884 0.0133690452 0.0000401879
Fe 3.0910298954 0.0000375831 -0.0003416253
Fe 0.0132654606 -0.0005529455 -0.0109396597
O 18.3289952660 -0.0007531733 2.1142645663
O 18.3265837972 0.0005784702 -2.1146817919
O 19.8594790560 -1.2604516237 -0.0042477748
O 19.8592964055 1.2596254467 -0.0025529884
O 15.2983082249 0.0019465603 2.1362497346
O 15.2974463573 -0.0020476102 -2.1359689412
O 16.8162967509 -1.2599113053 -0.0007828753
O 16.8164807379 1.2596238087 0.0013312335
O 12.2621698810 0.0316188883 2.1511593746
O 12.2617785103 -0.0319174662 -2.1489272745
O 13.7772564116 -1.2572048259 0.0245158437
O 13.7793471704 1.2570484873 -0.0244024187
O 9.2025487731 0.0035846030 2.2010580230
O 9.2028325599 0.0288719418 -2.2012992333
O 10.7648609953 -1.2794722136 0.0063211337
O 10.7782565213 1.2911644453 -0.0047031575
O 6.0914657703 0.0310787541 2.2006431910
O 6.0920822544 0.0026826728 -2.2001030554
O 7.6455262331 -1.2977959254 0.0006135672
O 7.6472300375 1.3246892158 -0.0005846131
O 3.0128845825 -0.0287686697 2.1614506199
O 3.0154875978 0.0279885628 -2.1637857874
O 4.5272888780 -1.2760269250 -0.0036741268
O 4.5106518487 1.2913195640 0.0032445629
O -0.0223339554 -0.0021810613 2.1145013600
O -0.0253139716 0.0019904197 -2.1396374017
O 1.5156099367 -1.2573115915 -0.0248150449
O 1.5129688580 1.2567599838 0.0015774278
H 18.3288081491 -0.8115637497 -2.6765402903
H 18.3037355065 0.8143143922 -2.6722972464
H 18.3017451970 -0.8145935805 2.6728638826
H 18.3249908356 0.8115373901 2.6762975990
H 19.8636926590 -2.2492945622 -0.0042603310
H 19.8644969958 2.2484471767 -0.0019772209
H 15.1747400212 -0.8173265520 -2.6864614441
H 15.1153622635 0.8042834049 -2.6745996151
H 15.1197856459 -0.8053763015 2.6759665838
H 15.1670904498 0.8168965302 2.6852653435
H 16.8106528518 -2.2487637256 0.0011201659
H 16.8105754350 2.2484676432 -0.0015805098
H 12.0494911351 -0.8499518466 -2.6666304890
H 12.0487153207 0.7722749061 -2.6877503912
H 12.0588554545 -0.7739549951 2.6921960470
H 12.0375862463 0.8485101667 2.6655703721
H 13.7589970589 -2.2455856572 0.0222179283
H 13.7605482568 2.2453674590 -0.0215528632
H 9.0852626852 -0.7781054368 -2.7535708311
H 9.0933955454 0.8484609464 -2.7383025945
H 9.0997043738 -0.8141529081 2.7431287225
H 9.0782169269 0.8122664997 2.7478888174
H 10.7419878953 -2.2668238060 0.0110379110
H 10.7622312408 2.2785476040 -0.0108211342
H 6.1682159767 -0.8192440239 -2.7422514442
H 6.2039922092 0.8072054267 -2.7537233228
H 6.1964635138 -0.7734624855 2.7575143261
H 6.1755928755 0.8533891652 2.7402721210
H 7.6436250408 -2.2845077500 0.0021202467
H 7.6482817597 2.3116828765 -0.0013447530
H 3.1920690166 -0.7801626332 -2.7099359536
H 3.2374014416 0.8419887339 -2.6832511047
H 3.2232380951 -0.8437732018 2.6842649806
H 3.2007459054 0.7787349394 2.7045226758
H 4.5503573795 -2.2632795813 -0.0071810667
H 4.5240091717 2.2788021449 0.0058560932
H 0.1146654435 -0.8082089301 -2.6881101641
H 0.1140367898 0.8161263561 -2.6870940107
H 0.1055542134 -0.8161355821 2.6654768806
H 0.1177151460 0.8079670700 2.6631547151
H 1.5342103011 -2.2456611359 -0.0229693824
H 1.5321911043 2.2450289467 0.0015929135
