77			
intermediate point	0.2		
Fe	18.3365932296	0.0000016147	0.0000441822
Fe	15.2771420662	0.0000008618	0.0000863567
Fe	12.2137918811	-0.0000086527	0.0000306222
Fe	9.1476152834	-0.0000026083	-0.0000623867
Fe	6.1214983612	0.0000098703	0.0000876694
Fe	3.0851021751	0.0000038401	0.0000999748
Fe	0.0117911908	-0.0000038887	-0.0000148610
O	18.3333780615	0.0000032937	2.1430184715
O	18.3333088866	-0.0000003444	-2.1429826935
O	19.8542382615	-1.2610962019	-0.0000489419
O	19.8542407499	1.2610936509	-0.0000737090
O	15.2807608805	-0.0000476415	2.1446350516
O	15.2807026030	0.0000559511	-2.1445113812
O	16.8098498018	-1.2610176450	-0.0000172590
O	16.8098491111	1.2610223456	0.0000113781
O	12.2420301673	0.0002632709	2.1552366292
O	12.2421134698	-0.0002847594	-2.1552348121
O	13.7676869017	-1.2605639772	-0.0000327465
O	13.7676847684	1.2605498639	0.0000596282
O	9.2032604514	-0.0007062563	2.1964015730
O	9.2032974742	0.0007073633	-2.1965748784
O	10.7480586231	-1.2714681866	0.0009009638
O	10.7480642943	1.2714506905	-0.0011553490
O	6.1079809923	0.0005220115	2.2691337746
O	6.1079364138	-0.0004938993	-2.2689452691
O	7.7173638987	-1.3252012089	0.0004544524
O	7.7173785390	1.3252164338	-0.0006031647
O	3.0237932506	-0.0001810923	2.1681135775
O	3.0239517273	0.0001761250	-2.1679243434
O	4.4829891431	-1.3116091999	-0.0003942957
O	4.4829940549	1.3116302649	0.0006957783
O	-0.0060397128	0.0000184380	2.1493044870
O	-0.0060813468	-0.0000236457	-2.1493855225
O	1.5054860917	-1.2585833013	-0.0000698627
O	1.5054797346	1.2585749025	-0.0000551863
H	18.3591321227	-0.7943783823	-2.6891370571
H	18.3590660711	0.7943795567	-2.6891297420
H	18.3591817176	-0.7944005457	2.6891263240
H	18.3592646004	0.7944063276	2.6891285654
H	19.8663949447	-2.2210964834	-0.0000119579
H	19.8664014344	2.2210939605	-0.0000241637
H	15.2127379717	-0.7941725531	-2.6874003432
H	15.2125322375	0.7942361757	-2.6874099855
H	15.2126716493	-0.7942569884	2.6875028717
H	15.2128494003	0.7942078403	2.6874922407
H	16.8068565301	-2.2211874402	-0.0000012611
H	16.8068601055	2.2211926839	0.0000093973
H	12.0985652374	-0.7942151626	-2.6839737495
H	12.0970226821	0.7936929011	-2.6833681042
H	12.0969716261	-0.7937390305	2.6833316099
H	12.0984743714	0.7942395851	2.6838958614
H	13.7470485941	-2.2201715862	0.0002955338
H	13.7470155762	2.2201555161	-0.0001481579
H	9.0634726324	-0.7948630454	-2.7176684609
H	9.0644017253	0.7958815821	-2.7185606457
H	9.0641609502	-0.7959272690	2.7182878815
H	9.0631994428	0.7948958324	2.7174187732
H	10.7064537204	-2.2291443374	-0.0007092167
H	10.7064942516	2.2291276697	0.0005203589
H	6.1377305976	-0.7961186622	-2.8068602394
H	6.1395767403	0.7953092282	-2.8060056219
H	6.1393617818	-0.7953057807	2.8061750147
H	6.1375261669	0.7961475502	2.8070676596
H	7.6954099196	-2.2807588296	-0.0003850498
H	7.6954243433	2.2807748151	0.0001774439
H	3.1847307339	-0.7949242549	-2.6888760901
H	3.1841913622	0.7952506485	-2.6891166139
H	3.1839925878	-0.7952862341	2.6892760978
H	3.1846024940	0.7949463527	2.6890184990
H	4.5210833784	-2.2676977688	0.0006897566
H	4.5210405386	2.2677201490	-0.0002041326
H	0.1081280493	-0.7938713991	-2.6848160560
H	0.1079997136	0.7938501353	-2.6848028392
H	0.1081022528	-0.7938825698	2.6846619608
H	0.1083026118	0.7938876276	2.6846659527
H	1.5428806220	-2.2171361824	-0.0002306699
H	1.5428848387	2.2171261340	0.0000148499
