77			
intermediate point	0.6		
Fe	18.3335693337	0.0000046030	0.0000297639
Fe	15.2737582639	-0.0000025427	0.0001357530
Fe	12.2039688330	-0.0000188488	-0.0001660117
Fe	9.1577052639	0.0000009230	-0.0000288396
Fe	6.1314151653	0.0000218512	0.0002283417
Fe	3.0750409586	0.0000043137	-0.0000179365
Fe	0.0082562724	-0.0000066084	0.0000141032
O	18.3326452552	-0.0000015632	2.1430199377
O	18.3325470401	0.0000074555	-2.1429863332
O	19.8571663955	-1.2610482386	-0.0000338920
O	19.8571727340	1.2610448750	-0.0000446769
O	15.2850991738	-0.0001730232	2.1478994637
O	15.2850382543	0.0001896826	-2.1476562273
O	16.8128772054	-1.2610936473	-0.0000162803
O	16.8128735270	1.2611042793	0.0001353168
O	12.2529524482	0.0007544264	2.1635274308
O	12.2532517999	-0.0008030915	-2.1639216122
O	13.7748540502	-1.2593185397	-0.0001543686
O	13.7748556547	1.2592819606	0.0002014635
O	9.1857721399	-0.0017928538	2.2449354830
O	9.1854813239	0.0017993078	-2.2450153698
O	10.7834822758	-1.2982863478	0.0027069613
O	10.7834941296	1.2982377770	-0.0033880663
O	6.0892738706	0.0008987242	2.2208843369
O	6.0895084141	-0.0008446492	-2.2203941624
O	7.6169966031	-1.3250832426	0.0030129039
O	7.6170098398	1.3251340452	-0.0025438016
O	3.0343906715	-0.0002734940	2.1594644397
O	3.0344363904	0.0002594670	-2.1595210486
O	4.5181771052	-1.2847910976	-0.0004069522
O	4.5181785044	1.2848333338	0.0004923724
O	-0.0018533235	-0.0000044465	2.1461546841
O	-0.0019380308	-0.0000060110	-2.1461732693
O	1.5124215378	-1.2598776568	-0.0001930224
O	1.5124141341	1.2598635452	-0.0000241126
H	18.3211103248	-0.7943611726	-2.6890039948
H	18.3209329460	0.7943821404	-2.6889800915
H	18.3211278991	-0.7943954724	2.6889891476
H	18.3212767083	0.7943820613	2.6890140831
H	19.8632417898	-2.2211597437	0.0000016566
H	19.8632569237	2.2211562766	-0.0000167040
H	15.1838143986	-0.7938209110	-2.6849916491
H	15.1829439370	0.7940646137	-2.6849834970
H	15.1831639708	-0.7940577329	2.6852533384
H	15.1839864156	0.7938431249	2.6852570361
H	16.8038217648	-2.2211546397	-0.0000038520
H	16.8038243380	2.2211668450	0.0000551378
H	12.0979261651	-0.7954312148	-2.6875462166
H	12.0925886052	0.7938496742	-2.6857275913
H	12.0922037221	-0.7938777872	2.6853150622
H	12.0974765007	0.7954272402	2.6870221890
H	13.7431636236	-2.2182313269	0.0008647078
H	13.7430873443	2.2181895678	-0.0004677926
H	9.1152456321	-0.7944075453	-2.7760612599
H	9.1156911418	0.7967740368	-2.7780162466
H	9.1155146695	-0.7967954521	2.7778792119
H	9.1149686483	0.7944274001	2.7759463829
H	10.7443574439	-2.2548939555	-0.0020695330
H	10.7444449741	2.2548449433	0.0010123516
H	6.1872437807	-0.7963515147	-2.7487785489
H	6.1927025760	0.7947104763	-2.7469239340
H	6.1922273445	-0.7947164504	2.7473816453
H	6.1867548590	0.7963825323	2.7493666815
H	7.6243248050	-2.2806314221	-0.0009516611
H	7.6243869632	2.2806828715	0.0018094992
H	3.1812247208	-0.7941669548	-2.6861324190
H	3.1815854193	0.7945860296	-2.6862413276
H	3.1816175541	-0.7946512710	2.6860866765
H	3.1812994463	0.7942003544	2.6859704819
H	4.5586735347	-2.2419387763	0.0007115936
H	4.5585873489	2.2419859799	-0.0007940669
H	0.0787255684	-0.7940968106	-2.6869163293
H	0.0786066931	0.7941168210	-2.6868873973
H	0.0787825443	-0.7941666555	2.6867968781
H	0.0789256649	0.7941287285	2.6868140609
H	1.5386815201	-2.2191303311	-0.0001787560
H	1.5386818189	2.2191141411	0.0000278059
