77
intermediate point 0.1
Fe 18.3400087466 -0.0000192044 -0.0001912200
Fe 15.2898668670 -0.0000133646 0.0004026016
Fe 12.2161884476 -0.0002206833 0.0002564557
Fe 9.1416538126 0.0017547736 0.0000743201
Fe 6.1269419151 0.0160822813 -0.0005555942
Fe 3.1051759851 -0.0000405373 -0.0001455798
Fe 0.0215383321 -0.0002157998 0.0002821756
O 18.3192795090 0.0263497800 2.0500351918
O 18.3186879369 -0.0264313479 -2.0501914281
O 19.8604438087 -1.1996632554 0.0188520616
O 19.8602046238 1.1993526714 -0.0187842676
O 15.2762336606 0.0264011572 2.0549314159
O 15.2730532520 -0.0264126161 -2.0539643249
O 16.8141898369 -1.2030459797 0.0201525846
O 16.8142250541 1.2029032873 -0.0201871280
O 12.2370182341 0.0301974595 2.0904094848
O 12.2370494531 -0.0305609536 -2.0898293106
O 13.7680079484 -1.1986729167 0.0219650045
O 13.7684977237 1.1983415714 -0.0196876131
O 9.2227842164 -0.0228274489 2.1127736773
O 9.2233615366 0.0277663879 -2.1128934192
O 10.7362233058 -1.2028513635 0.0028509532
O 10.7394358584 1.2039428610 -0.0020102557
O 6.1200111500 0.0263714560 2.1590975856
O 6.1201581557 0.0302752450 -2.1591469719
O 7.7331171122 -1.2447031387 -0.0218365943
O 7.7457779713 1.2592972943 0.0207249751
O 3.0165239390 -0.0304501988 2.1029806313
O 3.0160530101 0.0290451937 -2.1033967330
O 4.4994067749 -1.2398910276 -0.0250429805
O 4.4845112251 1.2531569557 0.0232755263
O -0.0243338446 0.0234882061 2.0824627003
O -0.0243696842 -0.0237428280 -2.0820390033
O 1.5157288441 -1.1972854515 -0.0085092617
O 1.5139396582 1.1970119796 0.0093323205
H 18.3776136249 -0.8428011360 -2.6082653166
H 18.3490202519 0.7801755286 -2.6246932455
H 18.3458837841 -0.7800325650 2.6248313233
H 18.3796229026 0.8428150811 2.6074796830
H 19.8717434690 -2.1874767536 0.0248001068
H 19.8718678300 2.1871466128 -0.0249162739
H 15.1653958953 -0.8426694511 -2.6064296547
H 15.1756352263 0.7795888852 -2.6218724159
H 15.1815613965 -0.7793335462 2.6234205693
H 15.1639549031 0.8428064450 2.6062073272
H 16.8118796199 -2.1908901254 0.0256435911
H 16.8118712079 2.1907475506 -0.0262498805
H 12.0105419325 -0.8438529382 -2.6103867801
H 12.0530700166 0.7752004300 -2.6381202986
H 12.0650875921 -0.7768981571 2.6406318336
H 11.9994570825 0.8413367023 2.6093301243
H 13.7516794898 -2.1863733975 0.0290279191
H 13.7517271734 2.1860174346 -0.0264407213
H 9.0021562087 -0.7717455982 -2.6513552511
H 9.0448240383 0.8509949833 -2.6331664152
H 9.0577789459 -0.8477030021 2.6354396042
H 8.9888586244 0.7740902766 2.6488719891
H 10.7012818539 -2.1891634372 0.0044008377
H 10.7052562791 2.1902149396 -0.0036502626
H 6.1182531404 -0.7837801831 -2.7217583059
H 6.1254793120 0.8413724231 -2.7240734753
H 6.1240885405 -0.7776768752 2.7342230967
H 6.1188552259 0.8474197659 2.7113674291
H 7.7071956117 -2.2292464366 -0.0260351758
H 7.7290400620 2.2441682808 0.0255127695
H 3.2177293785 -0.7731185104 -2.6499616123
H 3.1848629293 0.8511370420 -2.6313942187
H 3.1735072160 -0.8540661096 2.6323444215
H 3.2285927883 0.7695434029 2.6485335554
H 4.5311795871 -2.2246948457 -0.0292945553
H 4.5062707628 2.2382222966 0.0282271362
H 0.1698680894 -0.8350474371 -2.6166308717
H 0.1072247807 0.7846780159 -2.6414022954
H 0.0979856045 -0.7856526345 2.6428830987
H 0.1776035520 0.8333037981 2.6160852862
H 1.5478121428 -2.1840112472 -0.0080965160
H 1.5462839094 2.1836521553 0.0085095305
