77
intermediate point 0.5
Fe 18.3392758788 0.0000380379 0.0000720912
Fe 15.2799640156 0.0026373911 0.0001888073
Fe 12.2025916628 0.0027790854 0.0096432774
Fe 9.1536997575 0.0098048170 -0.0016399686
Fe 6.1396404444 0.0095247506 0.0013093684
Fe 3.0912282346 -0.0016262538 -0.0002742937
Fe 0.0130339191 0.0058170650 -0.0094020758
O 18.3249388871 0.0011770276 2.1011549880
O 18.3228998617 -0.0007318730 -2.1017692753
O 19.8611009722 -1.2343381584 -0.0014910945
O 19.8592933232 1.2426930360 -0.0030170685
O 15.2978357116 0.0012494545 2.1079314934
O 15.2935036261 -0.0001172073 -2.1071582906
O 16.8160356576 -1.2379378011 0.0007103077
O 16.8165426831 1.2409718235 -0.0010837884
O 12.2765842487 0.0281640254 2.1545658861
O 12.2569652978 -0.0266926719 -2.1306980421
O 13.7735712615 -1.2298116770 0.0042748509
O 13.7746775947 1.2394174207 -0.0004409363
O 9.2027420669 0.0019554597 2.1901438685
O 9.2039659753 0.0273891238 -2.1900953044
O 10.7656200898 -1.2511827549 0.0259218949
O 10.7706633695 1.2651988463 -0.0017322398
O 6.0921230325 0.0238384491 2.1918219344
O 6.0925655090 0.0066216599 -2.1897030385
O 7.6471147579 -1.2739471836 -0.0011260426
O 7.6466899130 1.2916015078 -0.0001636188
O 3.0153728680 -0.0320292547 2.1329162827
O 3.0181217763 0.0309024425 -2.1361564681
O 4.5279409283 -1.2558663412 -0.0250077438
O 4.5231655391 1.2603316603 0.0276356392
O -0.0202292488 0.0007651014 2.1012668143
O -0.0244658242 0.0016261610 -2.1217637300
O 1.5171170520 -1.2294565149 -0.0264307509
O 1.5176569134 1.2388351959 0.0018482604
H 18.3275618287 -0.8129705105 -2.6626844518
H 18.2988554676 0.8122747165 -2.6640822898
H 18.2908188944 -0.8110703794 2.6652708182
H 18.3239498406 0.8141634909 2.6617695885
H 19.8670301769 -2.2226724457 -0.0027564058
H 19.8623968034 2.2309960633 -0.0036337514
H 15.1462345655 -0.8142988503 -2.6529166207
H 15.1461527602 0.8086460203 -2.6575146794
H 15.1405493330 -0.8080366798 2.6563450314
H 15.1387120631 0.8143344624 2.6527211072
H 16.8100301997 -2.2262765342 0.0003011678
H 16.8115748394 2.2292676783 0.0001620650
H 12.0358171856 -0.8413757949 -2.6492449268
H 12.0506917480 0.7792761396 -2.6693268849
H 12.0647348373 -0.7792131275 2.6904905548
H 12.0392889898 0.8405144971 2.6691978070
H 13.7537913196 -2.2176808310 0.0064267755
H 13.7550324070 2.2271700423 -0.0033094357
H 9.0708801168 -0.7745757420 -2.7418566591
H 9.1049115331 0.8502382463 -2.7251506779
H 9.1069611222 -0.8206789845 2.7267682695
H 9.0633103116 0.8035724336 2.7392127508
H 10.7413927147 -2.2378740037 0.0264590113
H 10.7521653539 2.2519355080 -0.0013423066
H 6.1674275256 -0.8108966122 -2.7370380361
H 6.2027450343 0.8146069887 -2.7373224997
H 6.1988955866 -0.7810439859 2.7458788999
H 6.1702586285 0.8447315880 2.7334965262
H 7.6466660850 -2.2599749369 -0.0026226467
H 7.6468387637 2.2778484268 0.0045573199
H 3.2183613750 -0.7730922403 -2.6805997493
H 3.2008579214 0.8500633745 -2.6642193711
H 3.1929612383 -0.8507384836 2.6634431230
H 3.2203469403 0.7722742690 2.6749697627
H 4.5533337147 -2.2425513064 -0.0270251015
H 4.5406119896 2.2471257948 0.0268580584
H 0.1278619536 -0.8072314402 -2.6676919868
H 0.0863894364 0.8149177033 -2.6777923425
H 0.0833649141 -0.8149232566 2.6549827607
H 0.1293690249 0.8077154207 2.6508999186
H 1.5344092221 -2.2173566244 -0.0278115089
H 1.5382942511 2.2265748623 0.0029224622
