77
intermediate point 0.3
Fe 18.3396431910 0.0000213601 0.0001473895
Fe 15.2850451602 0.0016409895 0.0000943955
Fe 12.2101982694 0.0037460885 0.0135279518
Fe 9.1473734726 0.0060138854 -0.0008392874
Fe 6.1333049895 0.0133587672 0.0018343594
Fe 3.0986702037 -0.0007976312 -0.0003765695
Fe 0.0178970161 0.0082023366 -0.0132405255
O 18.3230247480 0.0148738290 2.1007708144
O 18.3201782071 -0.0143578817 -2.1016487163
O 19.8611752934 -1.2312517800 0.0086462795
O 19.8585110258 1.2429735573 -0.0149732632
O 15.2908481448 0.0147741599 2.1054378722
O 15.2847812770 -0.0141000740 -2.1047488064
O 16.8156019309 -1.2395451768 0.0119770629
O 16.8157241649 1.2411945530 -0.0125041017
O 12.2740761871 0.0300842419 2.1525005218
O 12.2464625593 -0.0283534584 -2.1187903602
O 13.7720273554 -1.2307346363 0.0155477330
O 13.7731958291 1.2395154340 -0.0101916362
O 9.2157770405 -0.0103457582 2.1792167251
O 9.2175113644 0.0281782716 -2.1764150774
O 10.7518816137 -1.2421035902 0.0259687474
O 10.7552456194 1.2546430180 0.0097955274
O 6.1060676220 0.0248721299 2.2046290652
O 6.1068219628 0.0176649457 -2.2014496330
O 7.6900156074 -1.2740363717 -0.0117735659
O 7.6933146119 1.2915535885 0.0119808655
O 3.0128222776 -0.0309886276 2.1410973589
O 3.0165790339 0.0302005964 -2.1455367414
O 4.5143391134 -1.2631529759 -0.0254854103
O 4.5080684001 1.2727400440 0.0288621969
O -0.0206253358 0.0143413485 2.1008722219
O -0.0265806831 -0.0108695192 -2.1295675718
O 1.5160768743 -1.2259192293 -0.0260839765
O 1.5164654231 1.2410556977 -0.0083567850
H 18.3611046166 -0.8286353448 -2.6593118728
H 18.3235557948 0.7964465776 -2.6682556982
H 18.3115834501 -0.7949363864 2.6696881552
H 18.3562829287 0.8301113933 2.6581711174
H 19.8696525475 -2.2196004919 0.0094609171
H 19.8630891189 2.2312829230 -0.0184081649
H 15.1513920784 -0.8299464118 -2.6514953862
H 15.1641875058 0.7937806552 -2.6632011626
H 15.1546945170 -0.7930221107 2.6617522522
H 15.1412030446 0.8299102875 2.6496786488
H 16.8116573892 -2.2278861558 0.0136874992
H 16.8124527320 2.2294873236 -0.0132227540
H 12.0063226446 -0.8402174567 -2.6336781163
H 12.0556805340 0.7791197259 -2.6611496252
H 12.0724827734 -0.7794439156 2.6895478673
H 12.0133944306 0.8383946060 2.6630920861
H 13.7553509543 -2.2187894336 0.0183644646
H 13.7575756848 2.2274981649 -0.0143594078
H 9.0314162306 -0.7717238899 -2.7185994967
H 9.0785643358 0.8522478829 -2.7024976372
H 9.0816820559 -0.8348154492 2.7065272760
H 9.0209116044 0.7883596183 2.7186368423
H 10.7264244700 -2.2290868659 0.0281841979
H 10.7322705883 2.2415772196 0.0090342589
H 6.1429512007 -0.7986588953 -2.7556817940
H 6.1632656883 0.8274894755 -2.7570107834
H 6.1612734713 -0.7804853743 2.7677563829
H 6.1448642066 0.8457823811 2.7518182863
H 7.6811746150 -2.2600927344 -0.0121204761
H 7.6905045678 2.2778140695 0.0168433714
H 3.2274982680 -0.7718522738 -2.6886793799
H 3.1897771783 0.8520942463 -2.6724503326
H 3.1800733965 -0.8525262172 2.6705821378
H 3.2295014221 0.7710984446 2.6817780196
H 4.5380635702 -2.2496190575 -0.0278388872
H 4.5212871772 2.2593206010 0.0280122708
H 0.1604073390 -0.8199062836 -2.6658494744
H 0.0955153669 0.8007988592 -2.6860585980
H 0.0911332080 -0.8006237637 2.6542263410
H 0.1626210709 0.8207591504 2.6422497718
H 1.5366934554 -2.2136516629 -0.0252823615
H 1.5411895879 2.2285480902 -0.0092515669
