77
intermediate point 0.1
Fe 18.3397587560 -0.0001375203 -0.0004083671
Fe 15.2898941615 0.0000439576 0.0003372472
Fe 12.2162072016 -0.0002344128 0.0001950448
Fe 9.1414154768 0.0013508940 0.0001479642
Fe 6.1270058269 0.0128442799 0.0000831055
Fe 3.1054714662 0.0000366904 -0.0000947580
Fe 0.0221472358 -0.0003032919 0.0001352032
O 18.3152316033 0.0256971005 2.0771608399
O 18.3148974531 -0.0257522060 -2.0773078223
O 19.8594412625 -1.2093122982 0.0191054971
O 19.8593505848 1.2090117618 -0.0190424751
O 15.2743121270 0.0258380814 2.0814946898
O 15.2715700893 -0.0257296380 -2.0807525961
O 16.8145934744 -1.2126112301 0.0203434849
O 16.8146140339 1.2125528711 -0.0203674747
O 12.2373367183 0.0289325407 2.0997828297
O 12.2374302631 -0.0293771665 -2.0992757662
O 13.7699352393 -1.2085293496 0.0222942745
O 13.7701894142 1.2083240586 -0.0198617087
O 9.2240972294 -0.0233164431 2.1225411950
O 9.2242305737 0.0282173118 -2.1224178258
O 10.7369752724 -1.2124750375 0.0014814416
O 10.7389427193 1.2129203399 -0.0013361132
O 6.1198081115 0.0250144145 2.1655573210
O 6.1200187678 0.0285518716 -2.1659807593
O 7.7356976821 -1.2590785585 -0.0195968766
O 7.7436579959 1.2669508941 0.0201977339
O 3.0161053608 -0.0301569330 2.1124666313
O 3.0160854622 0.0291657958 -2.1126550528
O 4.4966474936 -1.2538285231 -0.0225303042
O 4.4874165841 1.2608155756 0.0226474645
O -0.0238090165 0.0217482878 2.0957545131
O -0.0236523266 -0.0222595504 -2.0958000665
O 1.5154241825 -1.2063371356 -0.0096148757
O 1.5143637641 1.2058955392 0.0096832080
H 18.3728035497 -0.8409674098 -2.6368956795
H 18.3565005671 0.7831527680 -2.6475611542
H 18.3547160014 -0.7831548680 2.6475337693
H 18.3735295712 0.8409607832 2.6364597705
H 19.8691503463 -2.1973749367 0.0220621503
H 19.8693226884 2.1970404028 -0.0222823070
H 15.1677692742 -0.8406785605 -2.6353122138
H 15.1739286796 0.7829135211 -2.6447539859
H 15.1775959094 -0.7825694410 2.6458117507
H 15.1684181280 0.8409761261 2.6352943309
H 16.8123988627 -2.2006551600 0.0231129526
H 16.8124207169 2.2005819675 -0.0237309436
H 12.0174052311 -0.8436250240 -2.6212287899
H 12.0433425257 0.7766474601 -2.6439164346
H 12.0511383597 -0.7783906825 2.6452947468
H 12.0104998216 0.8415477805 2.6213289962
H 13.7552844796 -2.1964561952 0.0255603763
H 13.7552817102 2.1962349737 -0.0231575934
H 9.0164028771 -0.7746455446 -2.6619872476
H 9.0395400922 0.8488294592 -2.6445018666
H 9.0490075298 -0.8453233965 2.6461721748
H 9.0069353525 0.7777677956 2.6604829391
H 10.7036680718 -2.1990742718 0.0040162384
H 10.7072113477 2.1995263934 -0.0032361420
H 6.1224550519 -0.7858431188 -2.7281211219
H 6.1271790757 0.8397902566 -2.7311880958
H 6.1260068674 -0.7787760935 2.7414389985
H 6.1228780049 0.8469131056 2.7165537901
H 7.7136399694 -2.2440291671 -0.0235085389
H 7.7301269667 2.2522411434 0.0228874931
H 3.2112043530 -0.7756842599 -2.6579892569
H 3.1940184282 0.8491212656 -2.6411566473
H 3.1853954836 -0.8515259837 2.6417019501
H 3.2190416172 0.7730391807 2.6571716706
H 4.5247619364 -2.2389824242 -0.0265926713
H 4.5060482707 2.2463022308 0.0255737593
H 0.1625626486 -0.8355463187 -2.6306631886
H 0.1243267918 0.7859614756 -2.6510948649
H 0.1179420805 -0.7873419106 2.6514282337
H 0.1669430137 0.8338442484 2.6305896751
H 1.5461891616 -2.1933023658 -0.0062598313
H 1.5446407005 2.1928450351 0.0065292788
