270			
intermediate point	0.2		
Ti	0.0005650327	0.0003615933	0.0006397125
Ti	2.3135778526	2.3093470306	1.4883665879
Ti	4.6326039087	0.0096020418	0.0003213741
Ti	6.9345771852	2.3115718910	1.4960570417
Ti	9.2438926478	0.0019279082	-0.0001218903
Ti	11.5554345677	2.3136100511	1.4882716494
Ti	-0.0003123690	4.6228298642	0.0006296482
Ti	2.3123703794	6.9338229603	1.4878554753
Ti	4.6249304117	4.6208888678	-0.0001220423
Ti	6.9366122633	6.9324314010	1.4882717449
Ti	9.2365556427	4.6135541302	0.0003444242
Ti	11.5546267276	6.9316198404	1.4888331098
Ti	0.0000716132	9.2460698128	0.0002826751
Ti	2.3144984634	11.5604975388	1.4888382699
Ti	4.6233640848	9.2465646825	0.0006400760
Ti	6.9323508962	11.5595753715	1.4883672701
Ti	9.2458321600	9.2456849644	0.0006303608
Ti	11.5568257972	11.5583665070	1.4878554446
Ti	-0.0008800258	0.0014803863	2.9763844089
Ti	2.3152473533	2.3071924688	4.4663688324
Ti	4.6313015444	0.0082958595	2.9776589635
Ti	6.9346737271	2.3116620014	4.4965788094
Ti	9.2464530243	-0.0000055873	2.9797690733
Ti	11.5547245198	2.3167758956	4.4662466918
Ti	0.0013632517	4.6219844465	2.9763647806
Ti	2.3136276110	6.9329235268	4.4658959228
Ti	4.6229991271	4.6234476635	2.9797685606
Ti	6.9397787057	6.9317249469	4.4662452913
Ti	9.2379321446	4.6149293212	2.9776751896
Ti	11.5544286556	6.9314055883	4.4691568125
Ti	0.0000876743	9.2460840196	2.9773021714
Ti	2.3147745952	11.5607741882	4.4691528553
Ti	4.6244777361	9.2451148981	2.9763840796
Ti	6.9302098965	11.5612200395	4.4663672091
Ti	9.2449940326	9.2473576960	2.9763628594
Ti	11.5559353276	11.5596254090	4.4658946832
Ti	0.0000135615	0.0004357012	5.9579669698
Ti	2.3122770048	2.3117648486	7.4533228622
Ti	4.6366049590	0.0135676554	5.9585874651
Ti	6.9348988750	2.3118838712	7.4587062936
Ti	9.2435514664	0.0047799784	5.9642863507
Ti	11.5590095182	2.3135631002	7.4533120641
Ti	0.0019447987	4.6245475966	5.9580745440
Ti	2.3135401551	6.9351111109	7.4533216777
Ti	4.6277875326	4.6205422092	5.9642859281
Ti	6.9365549260	6.9360053991	7.4533116451
Ti	9.2328756499	4.6098761328	5.9585811085
Ti	11.5501998557	6.9271658812	7.4540085067
Ti	0.0001370035	9.2461295105	5.9592824792
Ti	2.3190922210	11.5650909412	7.4540083450
Ti	4.6234427039	9.2460199831	5.9579664820
Ti	6.9348207900	11.5582428106	7.4533221338
Ti	9.2475711068	9.2479115093	5.9580711396
Ti	11.5581050565	11.5595144037	7.4533215317
Ti	0.0003953516	-0.0002368172	8.9488725035
Ti	2.3143795858	2.3079442107	10.4411501932
Ti	4.6375965521	0.0145532763	8.9481282537
Ti	6.9347409032	2.3117270932	10.4107303317
Ti	9.2425852058	0.0060071953	8.9442879733
Ti	11.5559497121	2.3163990663	10.4412574834
Ti	0.0018391264	4.6254886047	8.9487945902
Ti	2.3136144852	6.9333498351	10.4414856767
Ti	4.6290145442	4.6195745544	8.9442885326
Ti	6.9393999247	6.9329493139	10.4412588125
Ti	9.2319386361	4.6089393775	8.9481314352
Ti	11.5535679335	6.9305395924	10.4387282350
Ti	0.0001376520	9.2461296109	8.9480646155
Ti	2.3156625995	11.5616627688	10.4387344204
Ti	4.6227717568	9.2464040424	8.9488726049
Ti	6.9309705327	11.5603473948	10.4411516781
Ti	9.2485147256	9.2478005863	8.9487969689
Ti	11.5563603116	11.5596089854	10.4414870544
Ti	-0.0010468091	0.0013454416	11.9317880276
Ti	2.3139787426	2.3089295710	13.4198558923
Ti	4.6324112547	0.0093993623	11.9302252750
Ti	6.9346077332	2.3116008361	13.4000880548
Ti	9.2462406801	0.0006082925	11.9268442977
Ti	11.5551793190	2.3141906119	13.4199884594
Ti	0.0018532638	4.6224582508	11.9317846414
Ti	2.3126620794	6.9336468005	13.4203167088
Ti	4.6236134563	4.6232335577	11.9268448703
Ti	6.9371928568	6.9321766214	13.4199889646
Ti	9.2368942727	4.6138915225	11.9302369629
Ti	11.5543413090	6.9313311245	13.4185494812
Ti	0.0000938882	9.2460891911	11.9304393441
Ti	2.3147924199	11.5607918900	13.4185360360
Ti	4.6243429501	9.2449492789	11.9317887882
Ti	6.9319358354	11.5599722545	13.4198562189
Ti	9.2454718287	9.2478421615	11.9317875931
Ti	11.5566512498	11.5586583930	13.4203169336
O	1.4084455672	1.4098074980	-0.0000389062
O	3.2128030809	3.2131825552	-0.0002166119
O	0.9025632371	3.7209690822	1.4865651645
O	3.7190417918	0.9025295392	1.4858489643
O	6.0305592195	1.4075581347	0.0015907371
O	7.8385324154	3.2155310740	0.0015975892
O	5.5228605136	3.7231977654	1.4861152182
O	8.3461987715	0.8998594062	1.4861149515
O	10.6562567400	1.4098796278	-0.0002239409
O	12.4606353602	3.2132449335	-0.0000326435
O	10.1500327302	3.7205446653	1.4858532813
O	12.9665234055	0.9021068603	1.4865424433
O	1.4095475041	6.0322994962	-0.0001849810
O	3.2137625953	7.8365308886	-0.0001777822
O	0.9027118926	8.3433308234	1.4865328327
O	3.7197855890	5.5262884706	1.4862953149
O	6.0328803401	6.0332556306	-0.0002241204
O	7.8362453283	7.8376341867	-0.0000327975
O	5.5251069662	8.3435220724	1.4865427093
O	8.3435449336	5.5270320656	1.4858531055
O	10.6560966354	6.0330953083	0.0000644961
O	12.4600592957	7.8370579320	-0.0001796123
O	10.1467121335	8.3452016728	1.4865811982
O	12.9682031212	5.5237109532	1.4865813380
O	1.4089861357	10.6549856926	-0.0001824737
O	3.2129667712	12.4589663513	0.0000585210
O	0.9008758715	12.9683624402	1.4865660010
O	3.7223627873	10.1468752089	1.4865661496
O	6.0328087762	10.6544437152	-0.0000389628
O	7.8361837655	12.4588010766	-0.0002167305
O	5.5255309125	12.9650401895	1.4858484316
O	8.3439703192	10.1485620768	1.4865654109
O	10.6553006997	10.6555464321	-0.0001849609
O	12.4595318444	12.4597623049	-0.0001778090
O	10.1492895135	12.9657842214	1.4862951690
O	12.9663317137	10.1487111672	1.4865328476
O	1.4077754288	1.4101736330	2.9730829080
O	3.2122531683	3.2130637224	2.9739848510
O	0.9016934204	3.7207568544	4.4641242844
O	3.7116232765	0.8989782724	4.4566964637
O	6.0297047913	1.4067012739	2.9657252684
O	7.8394426950	3.2164414740	2.9657354832
O	5.5208880385	3.7252629222	4.4602983651
O	8.3482682501	0.8978863140	4.4602950803
O	10.6568596860	1.4100409088	2.9740615281
O	12.4613982016	3.2129593398	2.9730443357
O	10.1578225273	3.7243020870	4.4566423643
O	12.9676374896	0.9025980371	4.4639822949
O	1.4095142236	6.0323024196	2.9740712831
O	3.2137545089	7.8365293107	2.9741154986
O	0.9025175924	8.3434689646	4.4630810206
O	3.7184593181	5.5276415073	4.4615021612
O	6.0330415035	6.0338584795	2.9740630584
O	7.8359604266	7.8383963900	2.9730445437
O	5.5255996075	8.3446372241	4.4639829899
O	8.3473026476	5.5348211711	4.4566435788
O	10.6569685212	6.0339666801	2.9726722402
O	12.4601934456	7.8371914439	2.9737506438
O	10.1464913374	8.3455356157	4.4637319388
O	12.9685384507	5.5234898068	4.4637324408
O	1.4088480614	10.6548470831	2.9737435280
O	3.2121400786	12.4581399629	2.9726356831
O	0.9006672831	12.9686881981	4.4635713107
O	3.7226900633	10.1466680129	4.4635723014
O	6.0331747529	10.6537723997	2.9730827310
O	7.8360646997	12.4582508229	2.9739869813
O	5.5219771126	12.9576114257	4.4566957212
O	8.3437573781	10.1476894797	4.4641244749
O	10.6553038117	10.6555127379	2.9740709361
O	12.4595304857	12.4597538358	2.9741145534
O	10.1506455422	12.9644584568	4.4615012438
O	12.9664713885	10.1485167743	4.4630807684
O	1.4084962444	1.4096670752	5.9579055601
O	3.2123587581	3.2126732600	5.9532465683
O	0.9036005800	3.7212546941	7.4528007803
O	3.7205416690	0.9041355594	7.4490247084
O	6.0039016926	1.3808699482	5.8923232637
O	7.8657007246	3.2426907388	5.8920438790
O	5.5073585812	3.7398278654	7.4500219911
O	8.3628364741	0.8843479401	7.4500206443
O	10.6569406603	1.4104950209	5.9528352293
O	12.4607515542	3.2134972480	5.9583613647
O	10.1487682468	3.7191266552	7.4489866163
O	12.9658170048	0.9019528639	7.4526743039
O	1.4090398799	6.0326955772	5.9557236291
O	3.2135254069	7.8371422013	5.9550889263
O	0.9027040686	8.3437865144	7.4523293528
O	3.7143289114	5.5325352994	7.4511496374
O	6.0334959209	6.0339388697	5.9528331028
O	7.8364997664	7.8377491566	5.9583657384
O	5.5249506262	8.3428123094	7.4526731549
O	8.3421254602	5.5257640883	7.4489867130
O	10.6597281298	6.0367249283	5.9539620622
O	12.4611515374	7.8381473190	5.9545227918
O	10.1470424811	8.3453144220	7.4525568155
O	12.9683186582	5.5240376811	7.4525573019
O	1.4079993944	10.6539988479	5.9542997693
O	3.2094494746	12.4554480415	5.9539800987
O	0.9008924032	12.9681938534	7.4524493875
O	3.7221934684	10.1468927339	7.4524484585
O	6.0326719324	10.6544896189	5.9579144628
O	7.8356776681	12.4583536107	5.9532402834
O	5.5271425624	12.9665358553	7.4490239680
O	8.3442626816	10.1495995239	7.4527988168
O	10.6556996422	10.6550355869	5.9557201024
O	12.4601437361	12.4595242345	5.9550902926
O	10.1555358034	12.9603206036	7.4511487394
O	12.9667865412	10.1487001832	7.4523294930
O	1.4090821441	1.4094352827	8.9474443941
O	3.2127471981	3.2124822460	8.9504097199
O	0.9019295091	3.7207074687	10.4417947146
O	3.7127809838	0.8994734230	10.4476291168
O	5.9973453567	1.3743066550	8.9914634323
O	7.8723540896	3.2493420345	8.9916723456
O	5.5174087467	3.7289430586	10.4439648883
O	8.3519506381	0.8944055193	10.4439673362
O	10.6565944937	1.4107072277	8.9505731536
O	12.4601668352	3.2137201490	8.9469678352
O	10.1567052743	3.7238312754	10.4476386105
O	12.9674470196	0.9026892748	10.4418543668
O	1.4089651893	6.0327683779	8.9497458475
O	3.2134902381	7.8372675162	8.9502668654
O	0.9024626604	8.3435769982	10.4428379899
O	3.7175365601	5.5287210248	10.4434928898
O	6.0337083323	6.0335928134	8.9505746882
O	7.8367228387	7.8371645994	8.9469626225
O	5.5256909784	8.3444467546	10.4418527832
O	8.3468314460	5.5337036064	10.4476372174
O	10.6600595948	6.0370562156	8.9494554955
O	12.4612686049	7.8382640613	8.9504406553
O	10.1464499652	8.3454481066	10.4422682365
O	12.9684511315	5.5234483956	10.4422686823
O	1.4078986388	10.6538978894	8.9505477221
O	3.2091224268	12.4551202916	8.9493873333
O	0.9007728923	12.9687582720	10.4423500306
O	3.7227605975	10.1467734904	10.4423483312
O	6.0324407720	10.6550750636	8.9474337907
O	7.8354872861	12.4587413286	8.9504122341
O	5.5224732748	12.9587673089	10.4476291287
O	8.3437084158	10.1479254131	10.4417935800
O	10.6557723022	10.6549603008	8.9497481629
O	12.4602686757	12.4594887216	8.9502662114
O	10.1517249263	12.9635344221	10.4434931174
O	12.9665793137	10.1484613866	10.4428381445
O	1.4080246110	1.4101587895	11.9327161739
O	3.2123332688	3.2129245476	11.9322929652
O	0.9024294081	3.7208997783	13.4199080332
O	3.7174322166	0.9017437232	13.4219594557
O	6.0232996921	1.4002880107	11.9539633328
O	7.8459690037	3.2229650087	11.9539866570
O	5.5224979122	3.7235914309	13.4207145904
O	8.3465933641	0.8994963271	13.4207154227
O	10.6568275132	1.4102204120	11.9322197017
O	12.4611716633	3.2129902303	11.9327170019
O	10.1516891877	3.7213608805	13.4219587177
O	12.9666864339	0.9022025629	13.4199158729
O	1.4094670581	6.0323405768	11.9322965687
O	3.2137529312	7.8366241858	11.9322624492
O	0.9026981944	8.3433569147	13.4200865075
O	3.7196032234	5.5265056184	13.4202159072
O	6.0332212284	6.0338263461	11.9322178719
O	7.8359916185	7.8381696563	11.9327163262
O	5.5252028586	8.3436852278	13.4199152791
O	8.3443610052	5.5286882322	13.4219586478
O	10.6576375706	6.0346355055	11.9336243081
O	12.4603028711	7.8373004979	11.9324538082
O	10.1466772653	8.3452227555	13.4199637344
O	12.9682244109	5.5236760036	13.4199638161
O	1.4087553223	10.6547541972	11.9324405394
O	3.2114810138	12.4574803161	11.9336380447
O	0.9008677577	12.9684130104	13.4199633511
O	3.7224136005	10.1468670645	13.4199628976
O	6.0331607143	10.6540209742	11.9327154700
O	7.8359261165	12.4583301015	11.9322903852
O	5.5247450367	12.9634284995	13.4219607848
O	8.3439011076	10.1484278565	13.4199073927
O	10.6553421242	10.6554648377	11.9322968620
O	12.4596251012	12.4597518530	11.9322633459
O	10.1495069507	12.9656016408	13.4202161355
O	12.9663579320	10.1486974355	13.4200864755
