77			
intermediate point	0.7		
Fe	18.3328133598	0.0000053501	0.0000261594
Fe	15.2729123133	-0.0000033938	0.0001481021
Fe	12.2015130709	-0.0000213978	-0.0002151701
Fe	9.1602277590	0.0000018059	-0.0000204529
Fe	6.1338943663	0.0000248465	0.0002635098
Fe	3.0725256545	0.0000044321	-0.0000474143
Fe	0.0073725428	-0.0000072883	0.0000213443
O	18.3324620537	-0.0000027774	2.1430203043
O	18.3323565785	0.0000094055	-2.1429872431
O	19.8578984290	-1.2610362478	-0.0000301295
O	19.8579057300	1.2610326810	-0.0000374189
O	15.2861837471	-0.0002043686	2.1487155667
O	15.2861221671	0.0002231155	-2.1484424388
O	16.8136340563	-1.2611126479	-0.0000160356
O	16.8136296310	1.2611247628	0.0001663015
O	12.2556830184	0.0008772152	2.1656001312
O	12.2560363825	-0.0009326746	-2.1660933123
O	13.7766458373	-1.2590071803	-0.0001847741
O	13.7766483763	1.2589649848	0.0002369224
O	9.1814000620	-0.0020645032	2.2570689605
O	9.1810272863	0.0020722939	-2.2571254927
O	10.7923381890	-1.3049908881	0.0031584607
O	10.7923515884	1.3049345486	-0.0039462456
O	6.0845970902	0.0009929024	2.2088219774
O	6.0849014142	-0.0009323367	-2.2082563857
O	7.5919047792	-1.3250537510	0.0036525168
O	7.5919176650	1.3251134481	-0.0030289608
O	3.0370400267	-0.0002965944	2.1573021553
O	3.0370575562	0.0002803025	-2.1574202249
O	4.5269740958	-1.2780865721	-0.0004101163
O	4.5269746168	1.2781341010	0.0004415210
O	-0.0008067262	-0.0000101676	2.1453672334
O	-0.0009022018	-0.0000016023	-2.1453702060
O	1.5141553993	-1.2602012457	-0.0002238123
O	1.5141477339	1.2601857059	-0.0000163441
H	18.3116048753	-0.7943568701	-2.6889707292
H	18.3113996647	0.7943827863	-2.6889426789
H	18.3116144445	-0.7943942041	2.6889548535
H	18.3117797353	0.7943759948	2.6889854625
H	19.8624535011	-2.2211755588	0.0000050603
H	19.8624707960	2.2211718556	-0.0000148391
H	15.1765835053	-0.7937330004	-2.6843894756
H	15.1755468619	0.7940217232	-2.6843768749
H	15.1757870512	-0.7940079190	2.6846909550
H	15.1767706694	0.7937519461	2.6846982350
H	16.8030630735	-2.2211464396	-0.0000044998
H	16.8030653961	2.2211603853	0.0000665730
H	12.0977663970	-0.7957352279	-2.6884393334
H	12.0914800860	0.7938888674	-2.6863174631
H	12.0910117461	-0.7939124764	2.6858109253
H	12.0972270330	0.7957241540	2.6878037709
H	13.7421923810	-2.2177462621	0.0010070013
H	13.7421052864	2.2176980807	-0.0005477013
H	9.1281888820	-0.7942936703	-2.7906594597
H	9.1285134959	0.7969971504	-2.7928801469
H	9.1283530994	-0.7970124978	2.7927770445
H	9.1279109496	0.7943102920	2.7905782854
H	10.7538333748	-2.2613313600	-0.0024096121
H	10.7539326548	2.2612742617	0.0011353498
H	6.1996220765	-0.7964097279	-2.7342581263
H	6.2059840349	0.7945607883	-2.7321535120
H	6.2054437352	-0.7945691178	2.7326833030
H	6.1990620320	0.7964412778	2.7349414370
H	7.6065535264	-2.2805995702	-0.0010933139
H	7.6066276182	2.2806598856	0.0022175130
H	3.1803482175	-0.7939776298	-2.6854465013
H	3.1809339336	0.7944198748	-2.6855225060
H	3.1810237957	-0.7944925302	2.6852893211
H	3.1804736844	0.7940138548	2.6852084777
H	4.5680710738	-2.2354990282	0.0007170529
H	4.5679740515	2.2355524377	-0.0009415505
H	0.0713749481	-0.7941531635	-2.6874413976
H	0.0712584380	0.7941834924	-2.6874085368
H	0.0714526172	-0.7942376769	2.6873306074
H	0.0715814281	0.7941890037	2.6873510880
H	1.5376317446	-2.2196288683	-0.0001657776
H	1.5376310640	2.2196111429	0.0000310449
