77
intermediate point 0.6
Fe 18.3390842045 0.0000039097 0.0000653168
Fe 15.2777331374 -0.0002451430 -0.0000707186
Fe 12.1974966791 -0.0000386111 0.0004758939
Fe 9.1568697544 0.0136592907 0.0000503607
Fe 6.1431268300 0.0107234725 0.0000346766
Fe 3.0871672002 -0.0000570158 -0.0003531099
Fe 0.0107415971 -0.0004416866 -0.0087510429
O 18.3312422999 -0.0072698265 2.1141979230
O 18.3291085716 0.0071250141 -2.1145184335
O 19.8597934189 -1.2608468192 -0.0088301486
O 19.8596545549 1.2601619753 0.0033712320
O 15.3028624197 -0.0042017567 2.1405058159
O 15.3021281636 0.0040837733 -2.1402570050
O 16.8165977574 -1.2594748865 -0.0060686374
O 16.8168106191 1.2591492592 0.0065545468
O 12.2664104297 0.0318215490 2.1551155334
O 12.2660016174 -0.0321953376 -2.1533553999
O 13.7784244910 -1.2570671269 0.0237785332
O 13.7808873254 1.2569474923 -0.0238934299
O 9.1961865525 0.0104038008 2.2068158057
O 9.1964104390 0.0285878957 -2.2071866427
O 10.7713690054 -1.2836287446 0.0109287017
O 10.7867845307 1.2977291827 -0.0095175383
O 6.0845902610 0.0313964621 2.1945732889
O 6.0851882358 -0.0045146325 -2.1941502436
O 7.6248417956 -1.2982778520 0.0063637456
O 7.6216860833 1.3245253641 -0.0062188435
O 3.0136752536 -0.0288164736 2.1600985571
O 3.0157909297 0.0281115238 -2.1621064136
O 4.5330612281 -1.2721501726 0.0011670127
O 4.5189649405 1.2843715645 -0.0017922857
O -0.0218334441 -0.0084756553 2.1144886822
O -0.0242133472 0.0083026494 -2.1346061209
O 1.5164606625 -1.2572973947 -0.0253551863
O 1.5142985974 1.2567548095 0.0067340977
H 18.3142694350 -0.8040503240 -2.6778663241
H 18.2871808158 0.8217284597 -2.6701387606
H 18.2864423918 -0.8219774950 2.6707258073
H 18.3105804932 0.8040364375 2.6775476741
H 19.8631085670 -2.2496870664 -0.0095809378
H 19.8637573634 2.2489858643 0.0045228095
H 15.1733316856 -0.8106623869 -2.6903798426
H 15.1010502564 0.8099922261 -2.6732440476
H 15.1068036402 -0.8113312995 2.6748618651
H 15.1654787778 0.8101443605 2.6891295400
H 16.8100416112 -2.2483252540 -0.0045436191
H 16.8099129040 2.2479898257 0.0041477578
H 12.0618796262 -0.8517499453 -2.6720443197
H 12.0461717730 0.7708969784 -2.6910415273
H 12.0574115802 -0.7728010521 2.6953885713
H 12.0496988393 0.8502633849 2.6705553394
H 13.7586468880 -2.2453562533 0.0212082810
H 13.7605863462 2.2451657282 -0.0205759232
H 9.1017735153 -0.7786952030 -2.7638252785
H 9.1083114330 0.8481406247 -2.7485523527
H 9.1133122715 -0.8068866685 2.7532041431
H 9.0960710569 0.8198430425 2.7579865135
H 10.7496064426 -2.2708770200 0.0154606794
H 10.7733991842 2.2850518108 -0.0155176397
H 6.1791615090 -0.8271892859 -2.7327830004
H 6.2228530488 0.7989327365 -2.7441084875
H 6.2135899416 -0.7724687868 2.7479067936
H 6.1875575440 0.8541746969 2.7305914196
H 7.6266795021 -2.2850126758 0.0083108186
H 7.6229304722 2.3115142933 -0.0079197243
H 3.1851560112 -0.7808595040 -2.7094802641
H 3.2461752513 0.8403766445 -2.6807001377
H 3.2326618471 -0.8422763989 2.6818388439
H 3.1937032597 0.7795352668 2.7047170224
H 4.5566517472 -2.2595402426 -0.0024237494
H 4.5348442842 2.2719305757 0.0011671288
H 0.1002410040 -0.8013747000 -2.6876929697
H 0.1071007725 0.8232503432 -2.6828160701
H 0.0997040304 -0.8232641245 2.6656356250
H 0.1030169274 0.8012004712 2.6676253909
H 1.5332755681 -2.2457378011 -0.0239349961
H 1.5317457857 2.2451277570 0.0067210219
