77
intermediate point 0.5
Fe 18.3391028644 -0.0000065054 -0.0000809508
Fe 15.2799176224 -0.0001042909 0.0019928898
Fe 12.2020330874 -0.0001291732 0.0002191587
Fe 9.1540350691 0.0088439763 0.0003735911
Fe 6.1393474932 0.0089266110 -0.0003179588
Fe 3.0894445766 -0.0001295674 -0.0007397897
Fe 0.0122485859 -0.0000886313 0.0000589191
O 18.3216936489 0.0003069378 2.0503182115
O 18.3187828419 -0.0004304277 -2.0513932096
O 19.8604500089 -1.2013303548 -0.0003742070
O 19.8603190751 1.2011114564 -0.0001421476
O 15.2927659847 0.0007677792 2.0718276998
O 15.2768376407 -0.0005931527 -2.0673049286
O 16.8143950426 -1.2014325859 0.0007459883
O 16.8145208606 1.2012744118 -0.0011230642
O 12.2548430417 0.0286670698 2.0979679006
O 12.2546222186 -0.0295140632 -2.0965774357
O 13.7719239271 -1.1982103105 0.0151217195
O 13.7730413245 1.1979022090 -0.0045595743
O 9.1992611134 0.0028080098 2.1358743793
O 9.1997866192 0.0267219218 -2.1359450679
O 10.7651610666 -1.2217038827 0.0134144095
O 10.7738343976 1.2285051856 -0.0125457346
O 6.0935946649 0.0266304339 2.1351468406
O 6.0941668778 0.0042215985 -2.1353584954
O 7.6462162212 -1.2450108729 -0.0002052415
O 7.6462893355 1.2593082549 0.0002438518
O 3.0188848800 -0.0305085987 2.0952917059
O 3.0184995091 0.0295440067 -2.0968966216
O 4.5265897791 -1.2208680725 -0.0160279318
O 4.5175730878 1.2281123317 0.0128690338
O -0.0224261339 -0.0012359493 2.0688101180
O -0.0228562328 0.0010444211 -2.0691008375
O 1.5181104559 -1.1980431131 -0.0151717398
O 1.5170794109 1.1977818308 0.0150093510
H 18.3212715002 -0.8121026114 -2.6165070096
H 18.2994068392 0.8106602379 -2.6179160151
H 18.2958139241 -0.8106446423 2.6163041472
H 18.3202359264 0.8119630033 2.6145427156
H 19.8663822516 -2.1890745018 0.0001781108
H 19.8664647373 2.1888507702 -0.0009854937
H 15.1466767861 -0.8120366718 -2.6217161534
H 15.1300407947 0.8091491274 -2.6168171612
H 15.1436244198 -0.8084009516 2.6209856084
H 15.1526342209 0.8125467463 2.6232250163
H 16.8071521661 -2.1891912210 -0.0008909693
H 16.8071749556 2.1890596142 -0.0021316447
H 12.0535662151 -0.8477273157 -2.6190690695
H 12.0466985673 0.7730109628 -2.6401560223
H 12.0584475642 -0.7753334723 2.6436784592
H 12.0442891783 0.8452119235 2.6191055589
H 13.7474058113 -2.1853494100 0.0182523941
H 13.7481195868 2.1849936153 -0.0065684611
H 9.0759200102 -0.7752046976 -2.6921661927
H 9.0989031837 0.8486378181 -2.6723012075
H 9.1066378957 -0.8177661707 2.6768400012
H 9.0691276917 0.8055613957 2.6875995689
H 10.7318573317 -2.2071345828 0.0163181581
H 10.7454226151 2.2141041101 -0.0144447033
H 6.1666370578 -0.8142128807 -2.6820202689
H 6.1986863707 0.8101382741 -2.6892918359
H 6.1936536765 -0.7760049735 2.6954454169
H 6.1705980093 0.8485330016 2.6753223724
H 7.6457265319 -2.2294559785 -0.0012515165
H 7.6464309084 2.2441191743 0.0012846749
H 3.1997437995 -0.7749152518 -2.6473256123
H 3.2066250467 0.8472313962 -2.6252650929
H 3.1978454798 -0.8492194113 2.6251808163
H 3.2066215749 0.7726486168 2.6451117461
H 4.5596147448 -2.2064593903 -0.0187705849
H 4.5451577112 2.2138163173 0.0163634644
H 0.1114950685 -0.8080540794 -2.6213087911
H 0.0870241126 0.8128214093 -2.6276573770
H 0.0795867071 -0.8135755532 2.6280559587
H 0.1146359279 0.8069521914 2.6207054428
H 1.5414355683 -2.1852008226 -0.0179630869
H 1.5406957511 2.1848769629 0.0177864479
