270			
intermediate point	0.4		
Ti	0.0001482442	0.0007658655	0.0011639847
Ti	2.3135785611	2.3093168855	1.4888706545
Ti	4.6323137935	0.0093110434	0.0005454749
Ti	6.9345688464	2.3115638102	1.4900972332
Ti	9.2445834323	0.0013802399	-0.0003433311
Ti	11.5554327640	2.3136324268	1.4888239354
Ti	0.0001365322	4.6224701509	0.0011441201
Ti	2.3123463287	6.9338189418	1.4884294305
Ti	4.6243834255	4.6215795475	-0.0003436313
Ti	6.9366345481	6.9324300154	1.4888242411
Ti	9.2368556312	4.6138540065	0.0005917627
Ti	11.5546770707	6.9316711176	1.4889608313
Ti	0.0000756987	9.2460735450	0.0004591651
Ti	2.3144471500	11.5604460423	1.4889593077
Ti	4.6237671453	9.2461469233	0.0011646662
Ti	6.9323205730	11.5595763145	1.4888713278
Ti	9.2454739560	9.2461336278	0.0011454998
Ti	11.5568214959	11.5583426624	1.4884293240
Ti	-0.0004303970	0.0010543946	2.9768999291
Ti	2.3149729243	2.3075954856	4.4666701837
Ti	4.6317057904	0.0087013043	2.9777720383
Ti	6.9346404928	2.3116305438	4.4916229717
Ti	9.2456924877	0.0005933809	2.9794631829
Ti	11.5547665491	2.3161207532	4.4665600251
Ti	0.0008177891	4.6222918311	2.9768677244
Ti	2.3133675858	6.9330566166	4.4661852177
Ti	4.6235974207	4.6226880623	2.9794628976
Ti	6.9391234884	6.9317667403	4.4665590109
Ti	9.2374942388	4.6144918518	2.9778055913
Ti	11.5543937291	6.9313757691	4.4690517895
Ti	0.0000886962	9.2460858122	2.9775283046
Ti	2.3147966676	11.5607957653	4.4690555619
Ti	4.6240534244	9.2455658919	2.9768998397
Ti	6.9306093124	11.5609517064	4.4666692721
Ti	9.2452988812	9.2468136692	2.9768665846
Ti	11.5560659894	11.5593650125	4.4661845203
Ti	-0.0003517775	0.0009970726	5.9581935087
Ti	2.3131871989	2.3104468923	7.4530246507
Ti	4.6352642146	0.0122345361	5.9586641377
Ti	6.9348426070	2.3118279351	7.4638814695
Ti	9.2444173396	0.0034825783	5.9637106711
Ti	11.5577724213	2.3145437948	7.4530032824
Ti	0.0019196077	4.6235890109	5.9582743928
Ti	2.3136571597	6.9344958283	7.4530209148
Ti	4.6264900687	4.6214094324	5.9637101599
Ti	6.9375382099	6.9347697116	7.4530024248
Ti	9.2341481914	4.6111481544	5.9586639041
Ti	11.5512136666	6.9281830002	7.4543911274
Ti	0.0001341499	9.2461277157	5.9594958008
Ti	2.3180626639	11.5640614614	7.4543904654
Ti	4.6240020336	9.2456520072	5.9581930577
Ti	6.9334933726	11.5591551187	7.4530231586
Ti	9.2466088533	9.2478935243	5.9582715618
Ti	11.5574936876	11.5596372469	7.4530206181
Ti	0.0004129870	-0.0003522018	8.9482627216
Ti	2.3132320452	2.3091015848	10.4411186059
Ti	4.6372311928	0.0141895228	8.9475780219
Ti	6.9347749133	2.3117608239	10.4159136405
Ti	9.2424935005	0.0059299440	8.9462554079
Ti	11.5572245142	2.3153670137	10.4412003326
Ti	0.0017069506	4.6254754083	8.9482419443
Ti	2.3133338250	6.9339167532	10.4413293122
Ti	4.6289370300	4.6194828412	8.9462562120
Ti	6.9383658646	6.9342230829	10.4412011662
Ti	9.2322904598	4.6092909558	8.9475718507
Ti	11.5526795976	6.9296510419	10.4394723838
Ti	0.0001356319	9.2461281118	8.9479882004
Ti	2.3165658212	11.5625660732	10.4394727409
Ti	4.6226558736	9.2464212791	8.9482623203
Ti	6.9321332138	11.5592009884	10.4411191610
Ti	9.2485005414	9.2476703328	8.9482426344
Ti	11.5569234677	11.5593247069	10.4413302691
Ti	-0.0007638729	0.0007833281	11.9322157184
Ti	2.3143794402	2.3084855536	13.4203207192
Ti	4.6339130485	0.0108961094	11.9308049999
Ti	6.9346300323	2.3116218035	13.3950915630
Ti	9.2452683522	0.0018219236	11.9265695956
Ti	11.5549228802	2.3147893581	13.4204444815
Ti	0.0017983942	4.6232410639	11.9322025676
Ti	2.3129293928	6.9334682005	13.4206627047
Ti	4.6248268402	4.6222604324	11.9265700182
Ti	6.9377915404	6.9319210556	13.4204453288
Ti	9.2354310100	4.6124287624	11.9308276892
Ti	11.5541097019	6.9310971361	13.4185603745
Ti	0.0001011797	9.2460962432	11.9307436463
Ti	2.3150315397	11.5610312366	13.4185450044
Ti	4.6237826604	9.2452347458	11.9322165958
Ti	6.9314940840	11.5603691839	13.4203219819
Ti	9.2462561436	9.2477831627	11.9322056793
Ti	11.5564739544	11.5589261225	13.4206631882
O	1.4082450268	1.4098893499	-0.0000720958
O	3.2127310122	3.2132064953	-0.0004277747
O	0.9025633841	3.7209797564	1.4863950766
O	3.7190038799	0.9025672007	1.4859338309
O	6.0302931615	1.4072917406	0.0031870259
O	7.8388081490	3.2158066264	0.0032007129
O	5.5228469050	3.7232067406	1.4860062994
O	8.3462076899	0.8998459380	1.4860061302
O	10.6563367535	1.4098636832	-0.0004425632
O	12.4608438374	3.2131683908	-0.0000595714
O	10.1500627198	3.7205008936	1.4859343099
O	12.9665115194	0.9020921168	1.4863692623
O	1.4095499076	6.0322842837	-0.0003642004
O	3.2137812684	7.8365287247	-0.0003498942
O	0.9027143861	8.3433254768	1.4863893320
O	3.7197465535	5.5263209309	1.4860669460
O	6.0328642439	6.0333355142	-0.0004429229
O	7.8361688141	7.8378425108	-0.0000598798
O	5.5250922272	8.3435102402	1.4863693254
O	8.3435012221	5.5270619865	1.4859341398
O	10.6562894336	6.0332880593	0.0001348875
O	12.4601216186	7.8371201406	-0.0003512357
O	10.1467370381	8.3451987740	1.4864023320
O	12.9682002474	5.5237357537	1.4864025515
O	1.4089204251	10.6549199445	-0.0003569503
O	3.2127732368	12.4587729334	0.0001229230
O	0.9008722817	12.9683321886	1.4863836648
O	3.7223324044	10.1468717092	1.4863836107
O	6.0328907130	10.6542429241	-0.0000722080
O	7.8362078509	12.4587289249	-0.0004280125
O	5.5255683425	12.9650025606	1.4859335853
O	8.3439809893	10.1485622397	1.4863950566
O	10.6552855688	10.6555488102	-0.0003641604
O	12.4595298096	12.4597809486	-0.0003499462
O	10.1493221252	12.9657452816	1.4860669850
O	12.9663263915	10.1487135993	1.4863893429
O	1.4079071578	1.4100671596	2.9729521115
O	3.2123303460	3.2130975407	2.9736161609
O	0.9018640856	3.7209303571	4.4634645541
O	3.7133245782	0.8998882935	4.4570831855
O	6.0299533332	1.4069505721	2.9671387159
O	7.8391702754	3.2161691668	2.9671479794
O	5.5212399455	3.7248814140	4.4599984921
O	8.3478856190	0.8982386074	4.4599956616
O	10.6567632899	1.4099916269	2.9736686684
O	12.4612356798	3.2130449109	2.9729150841
O	10.1560244744	3.7233395380	4.4570339466
O	12.9673969820	0.9023563645	4.4633267483
O	1.4095031470	6.0323663852	2.9738182565
O	3.2136799767	7.8365351613	2.9738532241
O	0.9025364500	8.3434576915	4.4627283487
O	3.7186415864	5.5274431644	4.4610351634
O	6.0329920214	6.0337619715	2.9736696287
O	7.8360457300	7.8382339752	2.9729150811
O	5.5253575064	8.3443963848	4.4633267761
O	8.3463401465	5.5330230774	4.4570348100
O	10.6568032836	6.0338016029	2.9726891202
O	12.4602115776	7.8372097483	2.9734655309
O	10.1465480503	8.3455488973	4.4632362100
O	12.9685515594	5.5235463235	4.4632371865
O	1.4088228352	10.6548220897	2.9734515730
O	3.2122903359	12.4582902423	2.9726524519
O	0.9006225436	12.9686016762	4.4630806548
O	3.7226028668	10.1466230450	4.4630809819
O	6.0330680213	10.6539046016	2.9729516634
O	7.8360985942	12.4583285457	2.9736174477
O	5.5228873951	12.9593157508	4.4570823895
O	8.3439311351	10.1478608726	4.4634641527
O	10.6553677633	10.6555019293	2.9738179144
O	12.4595364705	12.4596795339	2.9738524903
O	10.1504466581	12.9646407095	4.4610340198
O	12.9664597891	10.1485355767	4.4627280699
O	1.4079748257	1.4098603512	5.9559350740
O	3.2120420041	3.2128394727	5.9527003097
O	0.9030621731	3.7210337261	7.4521218577
O	3.7174013773	0.9025737365	7.4445566227
O	6.0102087668	1.3871843411	5.9032993411
O	7.8592727091	3.2362648217	5.9030893673
O	5.5105035055	3.7364140274	7.4465427045
O	8.3594220196	0.8874951991	7.4465400114
O	10.6572013765	1.4103122326	5.9523609751
O	12.4612647690	3.2133084086	5.9562284488
O	10.1519362269	3.7207033909	7.4444802535
O	12.9663329343	0.9021947783	7.4518683820
O	1.4091181303	6.0326008062	5.9550576482
O	3.2135662550	7.8370169057	5.9545749806
O	0.9027252859	8.3436452068	7.4511814520
O	3.7150809381	5.5315866474	7.4488234517
O	6.0333127584	6.0341992854	5.9523595501
O	7.8363105022	7.8382621360	5.9562310279
O	5.5251934410	8.3433293359	7.4518660892
O	8.3437027404	5.5289323684	7.4444804478
O	10.6592999829	6.0362970283	5.9526406962
O	12.4610251988	7.8380214727	5.9539560479
O	10.1469327740	8.3453273450	7.4516343406
O	12.9683314201	5.5239285294	7.4516353285
O	1.4080927837	10.6540923083	5.9537510596
O	3.2098647091	12.4558638134	5.9526251648
O	0.9008763109	12.9682897276	7.4514188214
O	3.7222896075	10.1468765628	7.4514169664
O	6.0328642350	10.6539690673	5.9559402030
O	7.8358433387	12.4580377286	5.9526946489
O	5.5255783789	12.9633942809	7.4445551199
O	8.3440400607	10.1490602028	7.4521179623
O	10.6556046216	10.6551146447	5.9550545863
O	12.4600188139	12.4595654399	5.9545760016
O	10.1545883466	12.9610745603	7.4488216586
O	12.9666458602	10.1487221075	7.4511817376
O	1.4091476455	1.4093965557	8.9477949747
O	3.2128219835	3.2124574842	8.9476336556
O	0.9023374400	3.7208302039	10.4413958748
O	3.7156400500	0.9008790568	10.4445775964
O	5.9970940232	1.3740556782	8.9572706929
O	7.8725815824	3.2495695682	8.9573398409
O	5.5142848459	3.7322381743	10.4415420042
O	8.3552468763	0.8912805049	10.4415431611
O	10.6565057175	1.4107364073	8.9474778194
O	12.4600938639	3.2137539132	8.9474582390
O	10.1537903265	3.7223976442	10.4445375043
O	12.9670146248	0.9025400222	10.4413684735
O	1.4089673554	6.0327460881	8.9489135347
O	3.2134960266	7.8372686952	8.9491645728
O	0.9024281828	8.3436724873	10.4421336335
O	3.7167954716	5.5296030120	10.4419753656
O	6.0337373407	6.0335038493	8.9474780520
O	7.8367563537	7.8370915491	8.9474540024
O	5.5255414251	8.3440140226	10.4413666698
O	8.3453974748	5.5307883082	10.4445362842
O	10.6599587744	6.0369554654	8.9472127897
O	12.4612600499	7.8382556746	8.9490106374
O	10.1464657533	8.3453722179	10.4417856344
O	12.9683752565	5.5234639485	10.4417865646
O	1.4078905439	10.6538896641	8.9489828810
O	3.2092146812	12.4552123783	8.9471279208
O	0.9008350444	12.9687409540	10.4417830516
O	3.7227430610	10.1468352772	10.4417813072
O	6.0324016997	10.6551409759	8.9477864819
O	7.8354626074	12.4588162644	8.9476317649
O	5.5238801760	12.9616275713	10.4445769213
O	8.3438318307	10.1483339203	10.4413944069
O	10.6557496296	10.6549626796	8.9489141610
O	12.4602698544	12.4594945323	8.9491649994
O	10.1526062369	12.9627920462	10.4419751315
O	12.9666743661	10.1484264000	10.4421337213
O	1.4084056851	1.4100365192	11.9316597363
O	3.2124920610	3.2128201151	11.9319533157
O	0.9022955636	3.7208408447	13.4195644981
O	3.7157847464	0.9009959262	13.4226922787
O	6.0171414881	1.3941223971	11.9652465641
O	7.8522245823	3.2292179288	11.9653043588
O	5.5221236034	3.7239921756	13.4206656039
O	8.3469949777	0.8991216842	13.4206669070
O	10.6566973046	1.4103495860	11.9319078512
O	12.4607821824	3.2131072439	11.9316207780
O	10.1533756428	3.7221329661	13.4226988681
O	12.9668376793	0.9022837904	13.4195604796
O	1.4094079369	6.0324421490	11.9319327637
O	3.2136773895	7.8367257715	11.9319179564
O	0.9026873980	8.3433773212	13.4198631649
O	3.7193821754	5.5267549016	13.4199695101
O	6.0333504225	6.0336960656	11.9319062933
O	7.8361086675	7.8377800826	11.9316198439
O	5.5252842798	8.3438366550	13.4195597594
O	8.3451330063	5.5303743273	13.4226985477
O	10.6581389435	6.0351368147	11.9329179922
O	12.4604311698	7.8374285991	11.9319631023
O	10.1466682495	8.3452402449	13.4197008515
O	12.9682421326	5.5236668018	13.4197010776
O	1.4086366466	10.6546356100	11.9319363226
O	3.2109746306	12.4569733707	11.9329088267
O	0.9008567408	12.9684323050	13.4196882821
O	3.7224330074	10.1468561074	13.4196877263
O	6.0330389926	10.6544019153	11.9316584197
O	7.8358223520	12.4584886207	11.9319511347
O	5.5239969501	12.9617791977	13.4226941171
O	8.3438422641	10.1482936378	13.4195637295
O	10.6554438365	10.6554052488	11.9319330007
O	12.4597265568	12.4596761407	11.9319185923
O	10.1497566735	12.9653804760	13.4199696349
O	12.9663784884	10.1486865472	13.4198631207
