77
intermediate point 0.2
Fe 18.3398268470 0.0000130211 0.0001850386
Fe 15.2875857325 0.0011427886 0.0000471896
Fe 12.2140015726 0.0042295901 0.0154702890
Fe 9.1442103301 0.0041184196 -0.0004389468
Fe 6.1301372621 0.0152757755 0.0020968548
Fe 3.1023911882 -0.0003833199 -0.0004277073
Fe 0.0203285646 0.0093949724 -0.0151597504
O 18.3220676784 0.0217222297 2.1005787276
O 18.3188173798 -0.0211708860 -2.1015884368
O 19.8612124539 -1.2297085908 0.0137149665
O 19.8581198772 1.2431138179 -0.0209513605
O 15.2873543614 0.0215365126 2.1041910615
O 15.2804201025 -0.0210915074 -2.1035440644
O 16.8153850676 -1.2403488646 0.0176104405
O 16.8153149059 1.2413059178 -0.0182142584
O 12.2728221563 0.0310443502 2.1514678397
O 12.2412111900 -0.0291838517 -2.1128365193
O 13.7712554024 -1.2311961159 0.0211841740
O 13.7724549463 1.2395644406 -0.0150669862
O 9.2222945273 -0.0164963671 2.1737531534
O 9.2242840590 0.0285728455 -2.1695749640
O 10.7450123756 -1.2375640078 0.0259921737
O 10.7475367443 1.2493651039 0.0155594111
O 6.1130399168 0.0253889703 2.2110326306
O 6.1139501897 0.0231865885 -2.2073229303
O 7.7114660321 -1.2740809658 -0.0170973275
O 7.7166269614 1.2915296289 0.0180531077
O 3.0115469825 -0.0304683141 2.1451878970
O 3.0158076627 0.0298496733 -2.1502268781
O 4.5075382060 -1.2667962932 -0.0257242435
O 4.5005198306 1.2789442358 0.0294754757
O -0.0208233792 0.0211294720 2.1006749256
O -0.0276381125 -0.0171173593 -2.1334694927
O 1.5155567854 -1.2241505865 -0.0259105893
O 1.5158696779 1.2421659486 -0.0134593078
H 18.3778760105 -0.8364677620 -2.6576255834
H 18.3359059583 0.7885325081 -2.6703424025
H 18.3219657280 -0.7868693899 2.6718968237
H 18.3724494727 0.8380853445 2.6563718819
H 19.8709637329 -2.2180645149 0.0155695786
H 19.8634352767 2.2314263528 -0.0257953717
H 15.1539708349 -0.8377701925 -2.6507847690
H 15.1732048787 0.7863479726 -2.6660444042
H 15.1617671090 -0.7855148262 2.6644558627
H 15.1424485353 0.8376982001 2.6481574196
H 16.8124709840 -2.2286909667 0.0203806649
H 16.8128916782 2.2295971462 -0.0199151635
H 11.9915753742 -0.8396382876 -2.6258947111
H 12.0581749271 0.7790415191 -2.6570609954
H 12.0763567414 -0.7795593097 2.6890765235
H 12.0004471510 0.8373346605 2.6600392257
H 13.7561307717 -2.2193437348 0.0243333092
H 13.7588473237 2.2276622263 -0.0198843939
H 9.0116842876 -0.7702979639 -2.7069709154
H 9.0653907372 0.8532527012 -2.6911711169
H 9.0690425228 -0.8418836815 2.6964067792
H 8.9997122508 0.7807532107 2.7083488881
H 10.7189403476 -2.2246932971 0.0290467913
H 10.7223232055 2.2363980754 0.0142225417
H 6.1307130382 -0.7925400368 -2.7650036729
H 6.1435260153 0.8339307190 -2.7668549252
H 6.1424624137 -0.7802060686 2.7786951245
H 6.1321669957 0.8463077776 2.7609791663
H 7.6984288801 -2.2601516331 -0.0168693909
H 7.7123374699 2.2777968908 0.0229863971
H 3.2320667145 -0.7712322905 -2.6927191951
H 3.1842368067 0.8531096821 -2.6765658134
H 3.1736294756 -0.8534200840 2.6741516452
H 3.2340786630 0.7705105324 2.6851821481
H 4.5304284980 -2.2531529331 -0.0282457800
H 4.5116247710 2.2654180041 0.0285893770
H 0.1766800318 -0.8262437053 -2.6649282181
H 0.1000783321 0.7937394372 -2.6901917258
H 0.0950173550 -0.7934740172 2.6538481312
H 0.1792470940 0.8272810153 2.6379246983
H 1.5378355721 -2.2117991822 -0.0240177878
H 1.5426372563 2.2295347042 -0.0153385814
