77
intermediate point 0.5
Fe 18.3394560420 -0.0000119375 -0.0000595368
Fe 15.2802141235 -0.0001977560 -0.0000274947
Fe 12.2009736722 -0.0002027893 0.0003962759
Fe 9.1535054262 0.0115729786 0.0000804221
Fe 6.1398946288 0.0137277468 0.0000627561
Fe 3.0911612898 -0.0002009356 -0.0002846845
Fe 0.0134033037 -0.0005923345 -0.0109017493
O 18.3285947705 -0.0007479184 2.1142618892
O 18.3262299253 0.0005694730 -2.1146132390
O 19.8594076591 -1.2604500537 -0.0040679522
O 19.8592434500 1.2596178006 -0.0026510702
O 15.2983610561 0.0019540756 2.1361088744
O 15.2975255139 -0.0020416069 -2.1357784834
O 16.8162503919 -1.2599333871 -0.0007351435
O 16.8164266090 1.2596591236 0.0013063180
O 12.2618308926 0.0315549588 2.1507802340
O 12.2615429939 -0.0318065654 -2.1485602895
O 13.7772397885 -1.2572458368 0.0244082642
O 13.7792882791 1.2571038811 -0.0242675507
O 9.2025261545 0.0035281010 2.2008014513
O 9.2028098838 0.0287468391 -2.2014261785
O 10.7648461481 -1.2795781889 0.0062651623
O 10.7781466202 1.2911101549 -0.0047015446
O 6.0914221305 0.0310714132 2.2004867134
O 6.0920654689 0.0027737297 -2.1999562429
O 7.6454289714 -1.2976802510 0.0005864937
O 7.6473196663 1.3247678699 -0.0005832324
O 3.0127649832 -0.0287211258 2.1612817266
O 3.0153504091 0.0279351173 -2.1636268610
O 4.5273133806 -1.2758455618 -0.0037666255
O 4.5105960987 1.2913980789 0.0033491946
O -0.0225267048 -0.0020944687 2.1145632535
O -0.0255415756 0.0018949243 -2.1395953538
O 1.5155835253 -1.2573788053 -0.0247127698
O 1.5129382141 1.2567965726 0.0015227716
H 18.3277010518 -0.8115819845 -2.6763614583
H 18.3045103899 0.8143562301 -2.6723577389
H 18.3024055183 -0.8146207618 2.6728941091
H 18.3240707779 0.8115210315 2.6761528632
H 19.8636768632 -2.2493377433 -0.0041988507
H 19.8645381630 2.2484721602 -0.0019559810
H 15.1734578215 -0.8172016040 -2.6863787179
H 15.1174269906 0.8048608698 -2.6748361900
H 15.1215213501 -0.8058389716 2.6762111479
H 15.1662986555 0.8167961905 2.6853118645
H 16.8106418862 -2.2488007448 0.0011235855
H 16.8105755143 2.2485206027 -0.0015562582
H 12.0490057823 -0.8498090256 -2.6668237909
H 12.0495953773 0.7727690878 -2.6876684061
H 12.0594589550 -0.7742277239 2.6920069444
H 12.0375694876 0.8484113471 2.6656330439
H 13.7589554701 -2.2455892731 0.0220437499
H 13.7604416979 2.2453800929 -0.0212849273
H 9.0856456230 -0.7783027115 -2.7535816324
H 9.0935251286 0.8482268326 -2.7385386318
H 9.0997673543 -0.8142590133 2.7429586209
H 9.0786721627 0.8123161964 2.7478391095
H 10.7419610573 -2.2668465371 0.0109358907
H 10.7619871870 2.2785984657 -0.0108598136
H 6.1693254906 -0.8190390117 -2.7421860581
H 6.2033566031 0.8075707894 -2.7535817757
H 6.1960881187 -0.7737306908 2.7573997525
H 6.1763705011 0.8532808925 2.7403344233
H 7.6435067571 -2.2843542295 0.0021261832
H 7.6484558235 2.3117052902 -0.0014396379
H 3.1938058211 -0.7802080846 -2.7096725809
H 3.2356981043 0.8423772585 -2.6834963720
H 3.2219650931 -0.8440643241 2.6844669592
H 3.2020505060 0.7788028923 2.7042840423
H 4.5504913762 -2.2631053267 -0.0072583195
H 4.5240339456 2.2788973127 0.0059969366
H 0.1153089641 -0.8083501013 -2.6878340482
H 0.1131458797 0.8160090962 -2.6870783661
H 0.1048226247 -0.8160108395 2.6655944490
H 0.1180954349 0.8081036574 2.6630302124
H 1.5342591221 -2.2456502390 -0.0228308976
H 1.5322665598 2.2450055332 0.0015562069
