77
intermediate point 0.9
Fe 18.3381969822 0.0000061936 0.0000293185
Fe 15.2699683778 -0.0001952172 0.0035831779
Fe 12.1878777272 -0.0000376630 0.0001818617
Fe 9.1664163257 0.0159331790 0.0006728621
Fe 6.1517530713 0.0017709406 -0.0000803233
Fe 3.0737131680 -0.0002185976 -0.0013339997
Fe 0.0029588397 0.0000385371 -0.0001643373
O 18.3241077887 -0.0257359044 2.0506012312
O 18.3188777468 0.0255704926 -2.0525949910
O 19.8604562090 -1.2029974542 -0.0196004756
O 19.8604335265 1.2028702414 0.0184999724
O 15.3092983088 -0.0248655987 2.0887239837
O 15.2806220294 0.0252263107 -2.0806455322
O 16.8146002484 -1.1998191921 -0.0186606079
O 16.8148166672 1.1996455363 0.0179409995
O 12.2726678493 0.0271366801 2.1055263164
O 12.2721949841 -0.0284671728 -2.1033255608
O 13.7758399058 -1.1977477043 0.0082784346
O 13.7775849253 1.1974628467 0.0105684644
O 9.1757380103 0.0284434685 2.1589750812
O 9.1762117018 0.0256774556 -2.1589967166
O 10.7940988274 -1.2405564020 0.0239778658
O 10.8082329369 1.2530675103 -0.0230812136
O 6.0671781797 0.0268894118 2.1111960955
O 6.0681755999 -0.0218320479 -2.1115700188
O 7.5593153302 -1.2453186070 0.0214261112
O 7.5468006998 1.2593192155 -0.0202372714
O 3.0212458211 -0.0305669986 2.0876027805
O 3.0209460081 0.0300428198 -2.0903965102
O 4.5537727833 -1.2018451174 -0.0070128830
O 4.5506349506 1.2030677077 0.0024625414
O -0.0205184231 -0.0259601046 2.0551575356
O -0.0213427815 0.0258316701 -2.0561626717
O 1.5204920677 -1.1988007747 -0.0218342179
O 1.5202191635 1.1985516821 0.0206863816
H 18.2649293756 -0.7814040867 -2.6247487025
H 18.2497934264 0.8411449472 -2.6111387848
H 18.2457440641 -0.8412567197 2.6077769711
H 18.2608489501 0.7811109254 2.6216057483
H 19.8610210341 -2.1906722500 -0.0244438853
H 19.8610616446 2.1905549276 0.0229452866
H 15.1279576769 -0.7814038925 -2.6370026521
H 15.0844463632 0.8387093696 -2.6117619065
H 15.1056874432 -0.8374683569 2.6185506475
H 15.1413135388 0.7822870475 2.6402427053
H 16.8024247123 -2.1874923167 -0.0274255296
H 16.8024787034 2.1873716778 0.0219865910
H 12.0965904977 -0.8516016931 -2.6277513588
H 12.0403271179 0.7708214956 -2.6421917459
H 12.0518075363 -0.7737687874 2.6467250848
H 12.0891212740 0.8490871447 2.6288809935
H 13.7431321327 -2.1843254224 0.0074768691
H 13.7445120003 2.1839697960 0.0133037992
H 9.1496838118 -0.7786637971 -2.7329771343
H 9.1529823291 0.8462806529 -2.7114359997
H 9.1554968456 -0.7878293392 2.7182403982
H 9.1493967590 0.8370325148 2.7263271487
H 10.7624328095 -2.2251057283 0.0282354786
H 10.7855889511 2.2379932805 -0.0252391441
H 6.2150209752 -0.8446455784 -2.6422822319
H 6.2718934295 0.7789041250 -2.6545101966
H 6.2632188124 -0.7743330717 2.6566677370
H 6.2223407927 0.8496462373 2.6392773157
H 7.5842574520 -2.2296655204 0.0235321428
H 7.5638217548 2.2440700678 -0.0229434198
H 3.1817582205 -0.7767119932 -2.6446896124
H 3.2283871641 0.8433257504 -2.6191359672
H 3.2221837436 -0.8443727129 2.6180172111
H 3.1846503616 0.7757538307 2.6416899368
H 4.5880499025 -2.1882239349 -0.0082466145
H 4.5840446596 2.1894103379 0.0044997926
H 0.0531220476 -0.7810607217 -2.6259867106
H 0.0668234445 0.8409648027 -2.6139124586
H 0.0611878097 -0.8414984719 2.6132288187
H 0.0516683038 0.7806005848 2.6253255993
H 1.5350589939 -2.1863903980 -0.0278296579
H 1.5351075928 2.1861017706 0.0270633653
