77
intermediate point 0.4
Fe 18.3395791477 -0.0000125781 -0.0000711319
Fe 15.2826776224 -0.0001582583 -0.0000223327
Fe 12.2044935340 -0.0002291334 0.0005714908
Fe 9.1502910303 0.0093328604 0.0000832828
Fe 6.1366258477 0.0163525571 0.0000743299
Fe 3.0950186934 -0.0001598729 -0.0002604803
Fe 0.0159107073 -0.0007051250 -0.0130798487
O 18.3264172457 0.0057506479 2.1143011581
O 18.3237643395 -0.0059606015 -2.1147455171
O 19.8590993135 -1.2600652548 0.0004863090
O 19.8588952227 1.2590874142 -0.0085358530
O 15.2937970866 0.0080942881 2.1318471263
O 15.2928316379 -0.0081668501 -2.1314965844
O 16.8159557303 -1.2603765328 0.0045332488
O 16.8161047989 1.2601386628 -0.0039009451
O 12.2575290768 0.0313510199 2.1467603498
O 12.2572632914 -0.0315378331 -2.1441243347
O 13.7760727813 -1.2573800686 0.0251588277
O 13.7777586835 1.2571991532 -0.0248012988
O 9.2088995991 -0.0032775392 2.1950568392
O 9.2092437252 0.0290509866 -2.1954796166
O 10.7583324268 -1.2754209118 0.0016609423
O 10.7696311507 1.2845684457 0.0001012121
O 6.0982997439 0.0307682035 2.2065721087
O 6.0989565555 0.0099597707 -2.2059062711
O 7.6661073160 -1.2971574092 -0.0051496274
O 7.6728746434 1.3249335097 0.0050463384
O 3.0119819186 -0.0286746457 2.1626359495
O 3.0150523208 0.0278123320 -2.1653071350
O 4.5215586374 -1.2796837477 -0.0085773911
O 4.5022745169 1.2983622438 0.0083626860
O -0.0230070388 0.0041687757 2.1145403084
O -0.0266287744 -0.0043979176 -2.1445716668
O 1.5147424634 -1.2573903554 -0.0241798188
O 1.5116135206 1.2567966972 -0.0036183140
H 18.3424220970 -0.8190772928 -2.6750735681
H 18.3209217779 0.8069764825 -2.6744600572
H 18.3176147350 -0.8072756971 2.6749809665
H 18.3386287518 0.8190021744 2.6749371081
H 19.8642658900 -2.2489484346 0.0010985651
H 19.8652938579 2.2479313038 -0.0084216657
H 15.1751861389 -0.8238828229 -2.6824879587
H 15.1313243511 0.7990708119 -2.6761066583
H 15.1341573893 -0.7998258250 2.6772297966
H 15.1681555282 0.8235630809 2.6814540106
H 16.8112560641 -2.2492399651 0.0067614348
H 16.8112397237 2.2489961185 -0.0072601162
H 12.0368041699 -0.8480600545 -2.6613749140
H 12.0518878842 0.7740693935 -2.6843470843
H 12.0606878009 -0.7753427568 2.6887631632
H 12.0255844282 0.8467050180 2.6606090325
H 13.7592996298 -2.2458228403 0.0230752183
H 13.7604094685 2.2455854650 -0.0223033629
H 9.0691354920 -0.7777130856 -2.7433000851
H 9.0785570958 0.8485799807 -2.7282409325
H 9.0860911474 -0.8214777853 2.7329249979
H 9.0608301884 0.8047853288 2.7377178332
H 10.7343294731 -2.2628018328 0.0065225322
H 10.7508315883 2.2720975098 -0.0061438438
H 6.1581799274 -0.8111501132 -2.7516201673
H 6.1846476935 0.8157689121 -2.7632204187
H 6.1790719524 -0.7746732606 2.7670106481
H 6.1642757665 0.8525260942 2.7500103907
H 7.6604313893 -2.2838013953 -0.0040344972
H 7.6737991000 2.3119033725 0.0051472554
H 3.2003443919 -0.7795437991 -2.7101457094
H 3.2273228328 0.8438919060 -2.6859877045
H 3.2129017450 -0.8454790837 2.6868405381
H 3.2087909500 0.7780376662 2.7040897545
H 4.5442182386 -2.2668008973 -0.0119633387
H 4.5131839196 2.2857766375 0.0106447538
H 0.1295469137 -0.8151638954 -2.6882793786
H 0.1202987592 0.8089310160 -2.6912753322
H 0.1108743116 -0.8089286470 2.6653899823
H 0.1326107657 0.8148490087 2.6586024885
H 1.5352125833 -2.2455916965 -0.0218673401
H 1.5327363743 2.2449118156 -0.0035528981
