77
intermediate point 0.1
Fe 18.3400105031 0.0000046822 0.0002226878
Fe 15.2901263049 0.0006445878 -0.0000000163
Fe 12.2178048759 0.0047130917 0.0174126261
Fe 9.1410471877 0.0022229538 -0.0000386061
Fe 6.1269695346 0.0171927838 0.0023593503
Fe 3.1061121727 0.0000309915 -0.0004788452
Fe 0.0227601132 0.0105876082 -0.0170789752
O 18.3211106088 0.0285706304 2.1003866409
O 18.3174565526 -0.0279838904 -2.1015281573
O 19.8612496145 -1.2281654016 0.0187836535
O 19.8577287285 1.2432540785 -0.0269294579
O 15.2838605781 0.0282988653 2.1029442509
O 15.2760589279 -0.0280829407 -2.1023393224
O 16.8151682042 -1.2411525524 0.0232438181
O 16.8149056468 1.2414172825 -0.0239244150
O 12.2715681255 0.0320044584 2.1504351576
O 12.2359598208 -0.0300142449 -2.1068826784
O 13.7704834493 -1.2316575956 0.0268206150
O 13.7717140635 1.2396134473 -0.0199423362
O 9.2288120141 -0.0226469761 2.1682895816
O 9.2310567536 0.0289674195 -2.1627348505
O 10.7381431375 -1.2330244254 0.0260155999
O 10.7398278693 1.2440871898 0.0213232947
O 6.1200122116 0.0259058106 2.2174361960
O 6.1210784166 0.0287082314 -2.2131962276
O 7.7329164569 -1.2741255598 -0.0224210892
O 7.7399393108 1.2915056693 0.0241253498
O 3.0102716873 -0.0299480005 2.1492784351
O 3.0150362915 0.0294987502 -2.1549170147
O 4.5007372986 -1.2704396106 -0.0259630768
O 4.4929712611 1.2851484277 0.0300887545
O -0.0210214227 0.0279175956 2.1004776294
O -0.0286955420 -0.0233651993 -2.1373714137
O 1.5150366966 -1.2223819437 -0.0257372021
O 1.5152739328 1.2432761996 -0.0185618305
H 18.3946474045 -0.8443001792 -2.6559392939
H 18.3482561219 0.7806184387 -2.6724291067
H 18.3323480059 -0.7788023934 2.6741054922
H 18.3886160168 0.8460592957 2.6545726463
H 19.8722749182 -2.2165285380 0.0216782400
H 19.8637814345 2.2315697827 -0.0331825785
H 15.1565495913 -0.8455939732 -2.6500741518
H 15.1822222515 0.7789152901 -2.6688876458
H 15.1688397010 -0.7780075417 2.6671594731
H 15.1436940260 0.8454861126 2.6466361904
H 16.8132845788 -2.2294957775 0.0270738306
H 16.8133306245 2.2297069689 -0.0266075730
H 11.9768281037 -0.8390591185 -2.6181113059
H 12.0606693201 0.7789633123 -2.6529723656
H 12.0802307095 -0.7796747037 2.6886051798
H 11.9874998715 0.8362747149 2.6569863652
H 13.7569105891 -2.2198980361 0.0303021537
H 13.7601189626 2.2278262876 -0.0254093799
H 8.9919523445 -0.7688720379 -2.6953423342
H 9.0522171385 0.8542575195 -2.6798445965
H 9.0564029897 -0.8489519139 2.6862862824
H 8.9785128971 0.7731468030 2.6980609338
H 10.7114562252 -2.2202997282 0.0299093846
H 10.7123758227 2.2312189311 0.0194108244
H 6.1184748757 -0.7864211784 -2.7743255518
H 6.1237863424 0.8403719624 -2.7766990671
H 6.1236513560 -0.7799267628 2.7896338660
H 6.1194697847 0.8468331742 2.7701400464
H 7.7156831451 -2.2602105319 -0.0216183056
H 7.7341703719 2.2777797122 0.0291294228
H 3.2366351610 -0.7706123073 -2.6967590104
H 3.1786964352 0.8541251180 -2.6806812941
H 3.1671855547 -0.8543139508 2.6777211526
H 3.2386559039 0.7699226202 2.6885862765
H 4.5227934257 -2.2566868086 -0.0286526729
H 4.5019623649 2.2715154072 0.0291664831
H 0.1929527245 -0.8325811270 -2.6640069619
H 0.1046412974 0.7866800151 -2.6943248536
H 0.0989015019 -0.7863242708 2.6534699213
H 0.1958731170 0.8338028801 2.6335996249
H 1.5389776888 -2.2099467014 -0.0227532141
H 1.5440849246 2.2305213182 -0.0214255960
