77
intermediate point 0.1
Fe 18.3400370069 -0.0000433647 -0.0002431583
Fe 15.2900712384 0.0001832554 0.0008822774
Fe 12.2158392097 -0.0004902640 0.0001057990
Fe 9.1413356387 0.0012845763 -0.0011669643
Fe 6.1269891865 0.0124960740 0.0010494888
Fe 3.1059069630 -0.0002831774 -0.0009092683
Fe 0.0234528391 -0.0005625460 0.0000321628
O 18.3180511002 0.0265049526 2.0936225566
O 18.3173707751 -0.0265423249 -2.0934722336
O 19.8594212620 -1.2214648391 0.0213352612
O 19.8593806839 1.2207121999 -0.0212643179
O 15.2776241525 0.0266518984 2.0962502700
O 15.2764981779 -0.0265976849 -2.0952804866
O 16.8149786551 -1.2258632849 0.0222836694
O 16.8150574875 1.2259882790 -0.0219706327
O 12.2409913174 0.0293918144 2.1098052900
O 12.2412339158 -0.0298021389 -2.1082057946
O 13.7707418788 -1.2203703103 0.0259409162
O 13.7708757231 1.2200039057 -0.0219098953
O 9.2253955990 -0.0245818594 2.1317595779
O 9.2253665910 0.0300890215 -2.1341248414
O 10.7361563777 -1.2236076958 -0.0052081260
O 10.7377264732 1.2233438237 0.0043349783
O 6.1198932982 0.0254823900 2.1738770783
O 6.1201860750 0.0286045164 -2.1757667016
O 7.7348974512 -1.2687973828 -0.0208928855
O 7.7411238200 1.2768351628 0.0225747136
O 3.0162586922 -0.0328785918 2.1204887071
O 3.0157368125 0.0318557703 -2.1212635211
O 4.4979001850 -1.2639994674 -0.0253559142
O 4.4906034013 1.2708939978 0.0236106247
O -0.0224754491 0.0208927920 2.1041467837
O -0.0226529827 -0.0213344739 -2.1041571924
O 1.5161051714 -1.2190795072 -0.0209370396
O 1.5152680186 1.2176579335 0.0205653523
H 18.3755458546 -0.8429076106 -2.6509475829
H 18.3522396775 0.7823993323 -2.6634691186
H 18.3504421269 -0.7822746700 2.6638805570
H 18.3770439392 0.8429328716 2.6506108908
H 19.8682132784 -2.2096925206 0.0242914886
H 19.8684815691 2.2089303501 -0.0243739746
H 15.1666454132 -0.8430045385 -2.6466256766
H 15.1719144391 0.7811933810 -2.6586644608
H 15.1749364260 -0.7811154577 2.6597870302
H 15.1642350669 0.8429948111 2.6469069480
H 16.8128314331 -2.2140653268 0.0263527503
H 16.8129927670 2.2141880651 -0.0259024908
H 12.0125546446 -0.8439896548 -2.6265709190
H 12.0471735912 0.7760277800 -2.6529669857
H 12.0563803035 -0.7778279972 2.6557793976
H 12.0030566409 0.8416541343 2.6269829180
H 13.7572664513 -2.2084787760 0.0296452297
H 13.7570508314 2.2081141266 -0.0260773399
H 9.0072781100 -0.7719102039 -2.6704625762
H 9.0392499697 0.8520261839 -2.6534996072
H 9.0499882679 -0.8480067435 2.6527858867
H 8.9962058549 0.7752763405 2.6658466592
H 10.7054460015 -2.2104381503 0.0028092870
H 10.7086429413 2.2102159518 -0.0021284694
H 6.1195726196 -0.7856365127 -2.7381167199
H 6.1271433415 0.8405177954 -2.7390614658
H 6.1251136990 -0.7778214534 2.7499538488
H 6.1195067640 0.8482834754 2.7237243992
H 7.7150105168 -2.2542350243 -0.0251969336
H 7.7299823663 2.2625892298 0.0250612721
H 3.2130428799 -0.7735335608 -2.6647911750
H 3.1942565334 0.8517771339 -2.6492473566
H 3.1845731385 -0.8547116774 2.6490562708
H 3.2221611059 0.7703403630 2.6636354592
H 4.5225087206 -2.2496234776 -0.0297913876
H 4.5053755978 2.2567881962 0.0269097527
H 0.1698571019 -0.8343855165 -2.6364672960
H 0.1169433165 0.7870673835 -2.6613876385
H 0.1096671376 -0.7882590649 2.6621302695
H 0.1758159725 0.8326244445 2.6359546939
H 1.5446222776 -2.2062225249 -0.0124289397
H 1.5432963352 2.2048003345 0.0123442007
