77
intermediate point 0.7
Fe 18.3386499233 -0.0000001559 -0.0000258161
Fe 15.2749430001 -0.0001497541 0.0027880338
Fe 12.1949554073 -0.0000834181 0.0002005102
Fe 9.1602256974 0.0123885777 0.0005232266
Fe 6.1455502822 0.0053487758 -0.0001991411
Fe 3.0815788723 -0.0001740825 -0.0010368947
Fe 0.0076037128 -0.0000250471 -0.0000527091
O 18.3229007188 -0.0127144833 2.0504597213
O 18.3188302943 0.0125700325 -2.0519941003
O 19.8604531090 -1.2021639045 -0.0099873413
O 19.8603763008 1.2019908489 0.0091789124
O 15.3010321467 -0.0120489097 2.0802758418
O 15.2787298351 0.0123165790 -2.0739752304
O 16.8144976455 -1.2006258890 -0.0089573098
O 16.8146687640 1.2004599740 0.0084089676
O 12.2637554455 0.0279018750 2.1017471085
O 12.2634086014 -0.0289906180 -2.0999514983
O 13.7738819165 -1.1979790074 0.0117000771
O 13.7753131249 1.1976825279 0.0030044450
O 9.1874995618 0.0156257392 2.1474247302
O 9.1879991605 0.0261996887 -2.1474708923
O 10.7796299470 -1.2311301424 0.0186961377
O 10.7910336673 1.2407863480 -0.0178134741
O 6.0803864223 0.0267599229 2.1231714680
O 6.0811712388 -0.0088052247 -2.1234642571
O 7.6027657757 -1.2451647399 0.0106104348
O 7.5965450176 1.2593137352 -0.0099967098
O 3.0200653506 -0.0305377987 2.0914472432
O 3.0197227586 0.0297934133 -2.0936465659
O 4.5401812811 -1.2113565949 -0.0115204074
O 4.5341040192 1.2155900197 0.0076657876
O -0.0214722785 -0.0135980269 2.0619838268
O -0.0220995071 0.0134380456 -2.0626317546
O 1.5193012618 -1.1984219439 -0.0185029788
O 1.5186492872 1.1981667565 0.0178478663
H 18.2931004379 -0.7967533490 -2.6206278561
H 18.2746001328 0.8259025925 -2.6145274000
H 18.2707789941 -0.8259506810 2.6120405592
H 18.2905424383 0.7965369643 2.6180742320
H 19.8637016428 -2.1898733759 -0.0121328873
H 19.8637631909 2.1897028489 0.0109798964
H 15.1373172315 -0.7967202822 -2.6293594028
H 15.1072435790 0.8239292485 -2.6142895338
H 15.1246559316 -0.8229346542 2.6197681280
H 15.1469738799 0.7974168969 2.6317338608
H 16.8047884392 -2.1883417689 -0.0141582494
H 16.8048268295 2.1882156460 0.0099274731
H 12.0750783564 -0.8496645044 -2.6234102142
H 12.0435128426 0.7719162292 -2.6411738841
H 12.0551275502 -0.7745511298 2.6452017720
H 12.0667052262 0.8471495341 2.6239932762
H 13.7452689720 -2.1848374162 0.0128646316
H 13.7463157936 2.1844817057 0.0033676691
H 9.1128019110 -0.7769342474 -2.7125716635
H 9.1259427564 0.8474592355 -2.6918686036
H 9.1310673707 -0.8027977549 2.6975401997
H 9.1092622253 0.8212969553 2.7069633588
H 10.7471450706 -2.2161201555 0.0222768184
H 10.7655057831 2.2260486953 -0.0198419237
H 6.1908290165 -0.8294292296 -2.6621512504
H 6.2352899001 0.7945211996 -2.6719010163
H 6.2284362444 -0.7751690226 2.6760565769
H 6.1964694010 0.8490896194 2.6572998440
H 7.6149919919 -2.2295607495 0.0111403131
H 7.6051263316 2.2440946211 -0.0108293724
H 3.1907510100 -0.7758136225 -2.6460076124
H 3.2175061054 0.8452785733 -2.6222005301
H 3.2100146117 -0.8467960621 2.6215990137
H 3.1956359683 0.7742012238 2.6434008415
H 4.5738323236 -2.1973416626 -0.0135085997
H 4.5646011854 2.2016133276 0.0104316285
H 0.0823085581 -0.7945574006 -2.6236477509
H 0.0769237786 0.8268931060 -2.6207849178
H 0.0703872584 -0.8275370126 2.6206423887
H 0.0831521159 0.7937763881 2.6230155210
H 1.5382472811 -2.1857956103 -0.0228963724
H 1.5379016719 2.1854893668 0.0224249066
