77
intermediate point 0.9
Fe 18.3387044392 -0.0000280819 -0.0000236058
Fe 15.2694928916 -0.0006311788 0.0018507038
Fe 12.1869506950 0.0003417582 0.0001086523
Fe 9.1664477804 0.0272740828 -0.0005415705
Fe 6.1525335969 0.0033587257 0.0001134336
Fe 3.0765049864 0.0001898316 -0.0000023235
Fe 0.0032988781 -0.0001964913 -0.0019675985
O 18.3326659261 -0.0263777069 2.1085251217
O 18.3307315905 0.0262695016 -2.1084731415
O 19.8607933440 -1.2530467087 -0.0206568242
O 19.8607868227 1.2526479357 0.0194582567
O 15.3142561007 -0.0267505407 2.1246341866
O 15.3130007218 0.0265293822 -2.1202501797
O 16.8183150255 -1.2502130121 -0.0206444366
O 16.8183766472 1.2493348677 0.0218889769
O 12.2783150767 0.0244119741 2.1616637254
O 12.2784014198 -0.0253324116 -2.1610716240
O 13.7784612504 -1.2485790295 -0.0167079355
O 13.7821729380 1.2475389637 0.0194010403
O 9.1766131111 0.0311187482 2.2193380183
O 9.1766657298 0.0296215260 -2.2204826433
O 10.7891355985 -1.2762505190 0.0231133666
O 10.8184104859 1.3126921722 -0.0238941694
O 6.0636266510 0.0244735976 2.1715900816
O 6.0638351363 -0.0180363096 -2.1713358227
O 7.5643240220 -1.2791394572 0.0223176969
O 7.5393607759 1.3195149098 -0.0232266958
O 3.0189133896 -0.0328320996 2.1253460308
O 3.0195680952 0.0323948792 -2.1260826370
O 4.5536537859 -1.2512127968 -0.0229669393
O 4.5470297976 1.2555045080 0.0241234397
O -0.0197861012 -0.0264236264 2.1089505631
O -0.0208483259 0.0262998225 -2.1137061457
O 1.5186494188 -1.2486204847 -0.0262152899
O 1.5178719716 1.2483664093 0.0211706159
H 18.2596377057 -0.7821183047 -2.6753667413
H 18.2549390392 0.8438177671 -2.6619461272
H 18.2557631703 -0.8439238859 2.6620980629
H 18.2581462323 0.7820014683 2.6751680963
H 19.8612584054 -2.2415696677 -0.0257136851
H 19.8614194805 2.2411721360 0.0246634659
H 15.1385351589 -0.7827744188 -2.6662143847
H 15.1100351713 0.8391088542 -2.6507190714
H 15.1150467140 -0.8392839285 2.6568382330
H 15.1330838435 0.7827126171 2.6682976204
H 16.8097068155 -2.2387199214 -0.0254287808
H 16.8086692181 2.2378229015 0.0263832084
H 12.1075421600 -0.8490905903 -2.6861150687
H 12.0361930876 0.7742583230 -2.6950726636
H 12.0463328224 -0.7752786815 2.7002654913
H 12.0968201081 0.8487944638 2.6820611236
H 13.7530573271 -2.2362621851 -0.0151057602
H 13.7550563733 2.2349984170 0.0173543714
H 9.1537629092 -0.7793762597 -2.7892403482
H 9.1549384845 0.8477670572 -2.7764009058
H 9.1561229467 -0.7870067288 2.7755465595
H 9.1520021910 0.8401943368 2.7874666825
H 10.7674096638 -2.2627550573 0.0241710021
H 10.8110768032 2.2992567054 -0.0260031282
H 6.2083032367 -0.8419236089 -2.7016877614
H 6.2856833712 0.7822780102 -2.7074558606
H 6.2760281886 -0.7751445468 2.7132290850
H 6.2167133455 0.8498112403 2.6969678003
H 7.5808735150 -2.2655448969 0.0223484143
H 7.5428650978 2.3059934172 -0.0240654617
H 3.1988655500 -0.7763319590 -2.6719645031
H 3.2249625591 0.8459267802 -2.6555705214
H 3.2191419615 -0.8469415663 2.6558770941
H 3.2032151313 0.7754862513 2.6700720502
H 4.5798441722 -2.2386412021 -0.0218531548
H 4.5736165551 2.2427888584 0.0216016909
H 0.0635885058 -0.7824259141 -2.6791748862
H 0.0695011122 0.8433519144 -2.6671207802
H 0.0671456893 -0.8432053556 2.6635629667
H 0.0641373087 0.7825317036 2.6743196961
H 1.5298238371 -2.2370308820 -0.0311391067
H 1.5293505592 2.2367645063 0.0268035452
