77
intermediate point 0.3
Fe 18.3395106191 0.0000019807 0.0001132471
Fe 15.2851399004 -0.0001184314 -0.0000481391
Fe 12.2080938947 -0.0001894022 0.0009119059
Fe 9.1473180138 0.0067874691 -0.0001224656
Fe 6.1333284053 0.0186601906 0.0000512105
Fe 3.0987552856 0.0002267810 -0.0003186562
Fe 0.0183131874 -0.0007754633 -0.0153168933
O 18.3245011981 0.0122801331 2.1143978529
O 18.3215342484 -0.0125146176 -2.1150085087
O 19.8588503300 -1.2596612329 0.0049169727
O 19.8585801065 1.2585523895 -0.0144014293
O 15.2891998351 0.0142431944 2.1277375722
O 15.2880827447 -0.0143103773 -2.1273928138
O 16.8156947380 -1.2607841428 0.0097886491
O 16.8158209755 1.2605729078 -0.0091153932
O 12.2536887837 0.0312135671 2.1432470571
O 12.2533322960 -0.0313617233 -2.1400710237
O 13.7749202528 -1.2574802238 0.0259904646
O 13.7762668603 1.2572504773 -0.0254203963
O 9.2152732144 -0.0100537925 2.1895424577
O 9.2156768015 0.0294400342 -2.1895244146
O 10.7518449753 -1.2711591515 -0.0028940021
O 10.7612005025 1.2780349705 0.0049256039
O 6.1052167889 0.0304433380 2.2127829950
O 6.1058702914 0.0170772836 -2.2120086790
O 7.6868951079 -1.2968320724 -0.0108867898
O 7.6983179459 1.3250169192 0.0106838478
O 3.0113032403 -0.0286730620 2.1641547455
O 3.0148809340 0.0277426409 -2.1671445350
O 4.5157441777 -1.2837804296 -0.0133564057
O 4.4940256651 1.3052155631 0.0133182599
O -0.0233349782 0.0104081269 2.1145267156
O -0.0275152203 -0.0106340397 -2.1496999633
O 1.5139084852 -1.2573399851 -0.0237347620
O 1.5103093791 1.2567703326 -0.0087359119
H 18.3578855774 -0.8265906010 -2.6738882226
H 18.3368448879 0.7994862571 -2.6766142178
H 18.3323508074 -0.7998257516 2.6771400331
H 18.3538115203 0.8265392951 2.6737974490
H 19.8648608430 -2.2485095536 0.0063808825
H 19.8659762607 2.2473698014 -0.0149772819
H 15.1775566923 -0.8306548823 -2.6786246471
H 15.1439862776 0.7928657626 -2.6773107501
H 15.1457496574 -0.7934663057 2.6781760212
H 15.1703137939 0.8304008696 2.6775369505
H 16.8118753329 -2.2496406689 0.0124477357
H 16.8119004972 2.2494232784 -0.0130370451
H 12.0247141530 -0.8463556491 -2.6558028276
H 12.0538024161 0.7750307615 -2.6811681189
H 12.0617432033 -0.7762628811 2.6858109985
H 12.0133610602 0.8450037303 2.6556004375
H 13.7596974008 -2.2460444649 0.0242372230
H 13.7604720780 2.2457709207 -0.0235067433
H 9.0522410250 -0.7769259045 -2.7330619362
H 9.0635637702 0.8491015898 -2.7178030781
H 9.0724885784 -0.8286853872 2.7229778812
H 9.0425086669 0.7971134141 2.7276934252
H 10.7267508005 -2.2587173782 0.0021923741
H 10.7398953542 2.2655391906 -0.0014281233
H 6.1463249122 -0.8033535000 -2.7611883318
H 6.1662705300 0.8237508071 -2.7729529935
H 6.1622106583 -0.7754498829 2.7767293912
H 6.1516635385 0.8518181016 2.7596335237
H 7.6775161182 -2.2834978985 -0.0102608969
H 7.6989843347 2.3120200431 0.0118051896
H 3.2058950275 -0.7787688914 -2.7108473326
H 3.2198538221 0.8452129129 -2.6883530385
H 3.2043905909 -0.8467668075 2.6891172538
H 3.2148311970 0.7771342844 2.7041339826
H 4.5377686440 -2.2707582587 -0.0166957012
H 4.5023389468 2.2925452833 0.0152340221
H 0.1435143223 -0.8218773903 -2.6889445529
H 0.1279088243 0.8018783820 -2.6956498919
H 0.1172545792 -0.8018784973 2.6651593919
H 0.1471115830 0.8215002676 2.6542133635
H 1.5360797670 -2.2455078057 -0.0210381549
H 1.5330817416 2.2448313261 -0.0086633034
