77
intermediate point 0.8
Fe 18.3388438660 -0.0000354369 -0.0000724414
Fe 15.2720559929 -0.0005596001 0.0016521455
Fe 12.1903274847 0.0002839818 0.0002167982
Fe 9.1632760317 0.0242987850 -0.0004786850
Fe 6.1493204088 0.0063338353 0.0002312677
Fe 3.0802163656 0.0002121245 -0.0000461138
Fe 0.0058655825 -0.0004067004 -0.0040445892
O 18.3311228431 -0.0200453658 2.1085474881
O 18.3289754967 0.0199196467 -2.1085532225
O 19.8605458374 -1.2527107307 -0.0161145480
O 19.8605569918 1.2519684108 0.0138964291
O 15.3099171451 -0.0202150207 2.1229102917
O 15.3086538136 0.0200238178 -2.1189720839
O 16.8179300374 -1.2505355708 -0.0155458293
O 16.8179969364 1.2497534529 0.0167412561
O 12.2732952274 0.0249465592 2.1572528182
O 12.2733983421 -0.0257554137 -2.1564029287
O 13.7776046908 -1.2485160937 -0.0117425542
O 13.7809288676 1.2475591210 0.0142413038
O 9.1830104007 0.0243017306 2.2134909481
O 9.1830916336 0.0296457808 -2.2144492677
O 10.7826219783 -1.2733798730 0.0185177534
O 10.8090023335 1.3056870991 -0.0189350438
O 6.0704957132 0.0250360396 2.1778236339
O 6.0707603435 -0.0117726942 -2.1773286592
O 7.5848677709 -1.2791333176 0.0169270436
O 7.5659945298 1.3195040395 -0.0175278321
O 3.0177886421 -0.0323047252 2.1295149367
O 3.0189133654 0.0317331513 -2.1306260608
O 4.5474914248 -1.2543008940 -0.0232627317
O 4.5379791755 1.2626514173 0.0246357988
O -0.0201826195 -0.0203433105 2.1089782455
O -0.0219675990 0.0200863382 -2.1183869480
O 1.5180951857 -1.2486597389 -0.0258534715
O 1.5168893391 1.2481452530 0.0159456750
H 18.2750419214 -0.7893114937 -2.6743195309
H 18.2695280553 0.8366172188 -2.6635638046
H 18.2695331226 -0.8367715784 2.6637361525
H 18.2732837521 0.7891929190 2.6741949403
H 19.8618679571 -2.2412414516 -0.0204903092
H 19.8623277164 2.2404920250 0.0183678779
H 15.1437430579 -0.7901195685 -2.6659033664
H 15.1186015803 0.8322227390 -2.6534033489
H 15.1228255956 -0.8323584783 2.6588509487
H 15.1383000889 0.7900764688 2.6676752931
H 16.8101608435 -2.2390500053 -0.0195439498
H 16.8092640214 2.2382516381 0.0203291053
H 12.0950548354 -0.8481238105 -2.6807789211
H 12.0387305309 0.7748405655 -2.6919334294
H 12.0481132931 -0.7757742105 2.6969507542
H 12.0845605226 0.8477538017 2.6772598395
H 13.7537949102 -2.2362942526 -0.0105111881
H 13.7555304091 2.2351378317 0.0126087505
H 9.1375663991 -0.7791112530 -2.7789970669
H 9.1398010188 0.8478048887 -2.7661243090
H 9.1420572027 -0.7937939801 2.7660120367
H 9.1346468393 0.8331526993 2.7768472830
H 10.7602418895 -2.2599970624 0.0202055941
H 10.7992126736 2.2923357831 -0.0216435208
H 6.1979110561 -0.8350437875 -2.7109232120
H 6.2662992047 0.7895239274 -2.7175473354
H 6.2579008966 -0.7754950428 2.7231487512
H 6.2056537518 0.8497189524 2.7068750089
H 7.5972505591 -2.2655318590 0.0168885171
H 7.5686733012 2.3059848752 -0.0179556177
H 3.2016729068 -0.7765933987 -2.6757931594
H 3.2217266769 0.8461301902 -2.6596352589
H 3.2149715411 -0.8471611752 2.6599227575
H 3.2064893910 0.7756401218 2.6730801287
H 4.5731215177 -2.2416083851 -0.0225868273
H 4.5621856612 2.2498484343 0.0223613591
H 0.0767217155 -0.7890140720 -2.6797622601
H 0.0783554107 0.8364289650 -2.6706165117
H 0.0748297815 -0.8363020299 2.6631739494
H 0.0773974169 0.7890325872 2.6703899115
H 1.5310605427 -2.2369805579 -0.0295016325
H 1.5302346221 2.2364309762 0.0212698888
